data_pcu_v1-6c_Zn_1_Ch_1-0_fer_tobacco
_audit_creation_date              2021-02-03
_audit_creation_method            'tobacco_3.0'
_symmetry_space_group_name_H-M    'P1'
_symmetry_Int_Tables_number       1
_symmetry_cell_setting            triclinic
loop_
_symmetry_equiv_pos_as_xyz
  x,y,z
_cell_length_a                    31.03102345561435
_cell_length_b                    31.03102345561435
_cell_length_c                    31.03102345561435
_cell_angle_alpha                 90.0
_cell_angle_beta                  90.0
_cell_angle_gamma                 90.0
loop_
_atom_site_label
_atom_site_type_symbol
_atom_site_fract_x
_atom_site_fract_y
_atom_site_fract_z
_atom_site_charge
Zn1       Zn   -0.0361315830   -0.0361315830    0.0361315830          1.4972
Zn2       Zn    0.0361315830    0.0361315830    0.0361315830          1.4936
Zn3       Zn    0.0361315830   -0.0361315830   -0.0361315830          1.4911
Zn4       Zn   -0.0361315830    0.0361315830   -0.0361315830          1.4948
O5         O    0.0000000000    0.0000000000    0.0000000000         -2.3123
O6         O   -0.0265540710   -0.0265540710    0.0965678752         -1.2186
O7         O    0.0965678752    0.0265540710    0.0265540710         -1.2168
O8         O    0.0265540710   -0.0965678752   -0.0265540710          -1.212
O9         O    0.0265540710    0.0265540710    0.0965678752         -1.2188
O10        O   -0.0265540710   -0.0965678752    0.0265540710         -1.2147
O11        O    0.0965678752   -0.0265540710   -0.0265540710         -1.2206
O12        O   -0.0265540710    0.0265540710   -0.0965678752         -1.2145
O13        O    0.0265540710    0.0965678752    0.0265540710         -1.2221
O14        O    0.0265540710   -0.0265540710   -0.0965678752          -1.216
O15        O   -0.0265540710    0.0965678752   -0.0265540710         -1.2206
O16        O   -0.0965678752    0.0265540710   -0.0265540710         -1.2197
O17        O   -0.0965678752   -0.0265540710    0.0265540710         -1.2176
C18        C   -0.0000000000   -0.0000000000    0.1154586475          0.3003
C19        C    0.1154586475   -0.0000000000   -0.0000000000          0.3052
C20        C   -0.0000000000   -0.1154586475    0.0000000000          0.2948
C21        C    0.0000000000    0.0000000000   -0.1154586475          0.2986
C22        C    0.0000000000    0.1154586475   -0.0000000000          0.3099
C23        C   -0.1154586475    0.0000000000    0.0000000000          0.3004
Zn24      Zn    1.0361315830   -0.0361315830    0.4638684170          1.4972
Zn25      Zn    0.9638684170    0.0361315830    0.4638684170          1.4936
Zn26      Zn    0.9638684170   -0.0361315830    0.5361315830          1.4911
Zn27      Zn    1.0361315830    0.0361315830    0.5361315830          1.4948
O28        O    1.0000000000    0.0000000000    0.5000000000         -2.3123
O29        O    1.0265540710   -0.0265540710    0.4034321248         -1.2186
O30        O    0.9034321248    0.0265540710    0.4734459290         -1.2168
O31        O    0.9734459290   -0.0965678752    0.5265540710          -1.212
O32        O    0.9734459290    0.0265540710    0.4034321248         -1.2188
O33        O    1.0265540710   -0.0965678752    0.4734459290         -1.2147
O34        O    0.9034321248   -0.0265540710    0.5265540710         -1.2206
O35        O    1.0265540710    0.0265540710    0.5965678752         -1.2145
O36        O    0.9734459290    0.0965678752    0.4734459290         -1.2221
O37        O    0.9734459290   -0.0265540710    0.5965678752          -1.216
O38        O    1.0265540710    0.0965678752    0.5265540710         -1.2206
O39        O    1.0965678752    0.0265540710    0.5265540710         -1.2197
O40        O    1.0965678752   -0.0265540710    0.4734459290         -1.2176
C41        C    1.0000000000    0.0000000000    0.3845413525          0.3003
C42        C    0.8845413525    0.0000000000    0.5000000000          0.3052
C43        C    1.0000000000   -0.1154586475    0.5000000000          0.2948
C44        C    1.0000000000    0.0000000000    0.6154586475          0.2986
C45        C    1.0000000000    0.1154586475    0.5000000000          0.3099
C46        C    1.1154586475    0.0000000000    0.5000000000          0.3004
Zn47      Zn    1.0361315830    0.4638684170   -0.0361315830          1.4972
Zn48      Zn    0.9638684170    0.4638684170    0.0361315830          1.4936
Zn49      Zn    1.0361315830    0.5361315830    0.0361315830          1.4911
Zn50      Zn    0.9638684170    0.5361315830   -0.0361315830          1.4948
O51        O    1.0000000000    0.5000000000    0.0000000000         -2.3123
O52        O    1.0265540710    0.4034321248   -0.0265540710         -1.2186
O53        O    0.9734459290    0.4734459290    0.0965678752         -1.2168
O54        O    1.0965678752    0.5265540710    0.0265540710          -1.212
O55        O    0.9734459290    0.4034321248    0.0265540710         -1.2188
O56        O    1.0965678752    0.4734459290   -0.0265540710         -1.2147
O57        O    1.0265540710    0.5265540710    0.0965678752         -1.2206
O58        O    0.9734459290    0.5965678752   -0.0265540710         -1.2145
O59        O    0.9034321248    0.4734459290    0.0265540710         -1.2221
O60        O    1.0265540710    0.5965678752    0.0265540710          -1.216
O61        O    0.9034321248    0.5265540710   -0.0265540710         -1.2206
O62        O    0.9734459290    0.5265540710   -0.0965678752         -1.2197
O63        O    1.0265540710    0.4734459290   -0.0965678752         -1.2176
C64        C    1.0000000000    0.3845413525    0.0000000000          0.3003
C65        C    1.0000000000    0.5000000000    0.1154586475          0.3052
C66        C    1.1154586475    0.5000000000    0.0000000000          0.2948
C67        C    1.0000000000    0.6154586475    0.0000000000          0.2986
C68        C    0.8845413525    0.5000000000    0.0000000000          0.3099
C69        C    1.0000000000    0.5000000000   -0.1154586475          0.3004
Zn70      Zn    0.9638684170    0.4638684170    0.5361315830          1.4972
Zn71      Zn    1.0361315830    0.4638684170    0.4638684170          1.4936
Zn72      Zn    0.9638684170    0.5361315830    0.4638684170          1.4911
Zn73      Zn    1.0361315830    0.5361315830    0.5361315830          1.4948
O74        O    1.0000000000    0.5000000000    0.5000000000         -2.3123
O75        O    0.9734459290    0.4034321248    0.5265540710         -1.2186
O76        O    1.0265540710    0.4734459290    0.4034321248         -1.2168
O77        O    0.9034321248    0.5265540710    0.4734459290          -1.212
O78        O    1.0265540710    0.4034321248    0.4734459290         -1.2188
O79        O    0.9034321248    0.4734459290    0.5265540710         -1.2147
O80        O    0.9734459290    0.5265540710    0.4034321248         -1.2206
O81        O    1.0265540710    0.5965678752    0.5265540710         -1.2145
O82        O    1.0965678752    0.4734459290    0.4734459290         -1.2221
O83        O    0.9734459290    0.5965678752    0.4734459290          -1.216
O84        O    1.0965678752    0.5265540710    0.5265540710         -1.2206
O85        O    1.0265540710    0.5265540710    0.5965678752         -1.2197
O86        O    0.9734459290    0.4734459290    0.5965678752         -1.2176
C87        C    1.0000000000    0.3845413525    0.5000000000          0.3003
C88        C    1.0000000000    0.5000000000    0.3845413525          0.3052
C89        C    0.8845413525    0.5000000000    0.5000000000          0.2948
C90        C    1.0000000000    0.6154586475    0.5000000000          0.2986
C91        C    1.1154586475    0.5000000000    0.5000000000          0.3099
C92        C    1.0000000000    0.5000000000    0.6154586475          0.3004
Zn93      Zn    0.4638684170    0.9638684170   -0.0361315830          1.4972
Zn94      Zn    0.4638684170    1.0361315830    0.0361315830          1.4936
Zn95      Zn    0.5361315830    0.9638684170    0.0361315830          1.4911
Zn96      Zn    0.5361315830    1.0361315830   -0.0361315830          1.4948
O97        O    0.5000000000    1.0000000000    0.0000000000         -2.3123
O98        O    0.4034321248    0.9734459290   -0.0265540710         -1.2186
O99        O    0.4734459290    1.0265540710    0.0965678752         -1.2168
O100       O    0.5265540710    0.9034321248    0.0265540710          -1.212
O101       O    0.4034321248    1.0265540710    0.0265540710         -1.2188
O102       O    0.4734459290    0.9034321248   -0.0265540710         -1.2147
O103       O    0.5265540710    0.9734459290    0.0965678752         -1.2206
O104       O    0.5965678752    1.0265540710   -0.0265540710         -1.2145
O105       O    0.4734459290    1.0965678752    0.0265540710         -1.2221
O106       O    0.5965678752    0.9734459290    0.0265540710          -1.216
O107       O    0.5265540710    1.0965678752   -0.0265540710         -1.2206
O108       O    0.5265540710    1.0265540710   -0.0965678752         -1.2197
O109       O    0.4734459290    0.9734459290   -0.0965678752         -1.2176
C110       C    0.3845413525    1.0000000000    0.0000000000          0.3003
C111       C    0.5000000000    1.0000000000    0.1154586475          0.3052
C112       C    0.5000000000    0.8845413525    0.0000000000          0.2948
C113       C    0.6154586475    1.0000000000    0.0000000000          0.2986
C114       C    0.5000000000    1.1154586475    0.0000000000          0.3099
C115       C    0.5000000000    1.0000000000   -0.1154586475          0.3004
Zn116     Zn    0.4638684170    1.0361315830    0.4638684170          1.4972
Zn117     Zn    0.5361315830    1.0361315830    0.5361315830          1.4936
Zn118     Zn    0.4638684170    0.9638684170    0.5361315830          1.4911
Zn119     Zn    0.5361315830    0.9638684170    0.4638684170          1.4948
O120       O    0.5000000000    1.0000000000    0.5000000000         -2.3123
O121       O    0.4734459290    1.0965678752    0.4734459290         -1.2186
O122       O    0.5265540710    1.0265540710    0.5965678752         -1.2168
O123       O    0.4034321248    0.9734459290    0.5265540710          -1.212
O124       O    0.5265540710    1.0965678752    0.5265540710         -1.2188
O125       O    0.4034321248    1.0265540710    0.4734459290         -1.2147
O126       O    0.4734459290    0.9734459290    0.5965678752         -1.2206
O127       O    0.5265540710    0.9034321248    0.4734459290         -1.2145
O128       O    0.5965678752    1.0265540710    0.5265540710         -1.2221
O129       O    0.4734459290    0.9034321248    0.5265540710          -1.216
O130       O    0.5965678752    0.9734459290    0.4734459290         -1.2206
O131       O    0.5265540710    0.9734459290    0.4034321248         -1.2197
O132       O    0.4734459290    1.0265540710    0.4034321248         -1.2176
C133       C    0.5000000000    1.1154586475    0.5000000000          0.3003
C134       C    0.5000000000    1.0000000000    0.6154586475          0.3052
C135       C    0.3845413525    1.0000000000    0.5000000000          0.2948
C136       C    0.5000000000    0.8845413525    0.5000000000          0.2986
C137       C    0.6154586475    1.0000000000    0.5000000000          0.3099
C138       C    0.5000000000    1.0000000000    0.3845413525          0.3004
Zn139     Zn    0.4638684170    0.4638684170   -0.0361315830          1.4972
Zn140     Zn    0.4638684170    0.5361315830    0.0361315830          1.4936
Zn141     Zn    0.5361315830    0.4638684170    0.0361315830          1.4911
Zn142     Zn    0.5361315830    0.5361315830   -0.0361315830          1.4948
O143       O    0.5000000000    0.5000000000    0.0000000000         -2.3123
O144       O    0.4034321248    0.4734459290   -0.0265540710         -1.2186
O145       O    0.4734459290    0.5265540710    0.0965678752         -1.2168
O146       O    0.5265540710    0.4034321248    0.0265540710          -1.212
O147       O    0.4034321248    0.5265540710    0.0265540710         -1.2188
O148       O    0.4734459290    0.4034321248   -0.0265540710         -1.2147
O149       O    0.5265540710    0.4734459290    0.0965678752         -1.2206
O150       O    0.5965678752    0.5265540710   -0.0265540710         -1.2145
O151       O    0.4734459290    0.5965678752    0.0265540710         -1.2221
O152       O    0.5965678752    0.4734459290    0.0265540710          -1.216
O153       O    0.5265540710    0.5965678752   -0.0265540710         -1.2206
O154       O    0.5265540710    0.5265540710   -0.0965678752         -1.2197
O155       O    0.4734459290    0.4734459290   -0.0965678752         -1.2176
C156       C    0.3845413525    0.5000000000    0.0000000000          0.3003
C157       C    0.5000000000    0.5000000000    0.1154586475          0.3052
C158       C    0.5000000000    0.3845413525    0.0000000000          0.2948
C159       C    0.6154586475    0.5000000000    0.0000000000          0.2986
C160       C    0.5000000000    0.6154586475    0.0000000000          0.3099
C161       C    0.5000000000    0.5000000000   -0.1154586475          0.3004
Zn162     Zn    0.4638684170    0.5361315830    0.4638684170          1.4972
Zn163     Zn    0.4638684170    0.4638684170    0.5361315830          1.4936
Zn164     Zn    0.5361315830    0.4638684170    0.4638684170          1.4911
Zn165     Zn    0.5361315830    0.5361315830    0.5361315830          1.4948
O166       O    0.5000000000    0.5000000000    0.5000000000         -2.3123
O167       O    0.4034321248    0.5265540710    0.4734459290         -1.2186
O168       O    0.4734459290    0.4034321248    0.5265540710         -1.2168
O169       O    0.5265540710    0.4734459290    0.4034321248          -1.212
O170       O    0.4034321248    0.4734459290    0.5265540710         -1.2188
O171       O    0.4734459290    0.5265540710    0.4034321248         -1.2147
O172       O    0.5265540710    0.4034321248    0.4734459290         -1.2206
O173       O    0.5965678752    0.5265540710    0.5265540710         -1.2145
O174       O    0.4734459290    0.4734459290    0.5965678752         -1.2221
O175       O    0.5965678752    0.4734459290    0.4734459290          -1.216
O176       O    0.5265540710    0.5265540710    0.5965678752         -1.2206
O177       O    0.5265540710    0.5965678752    0.5265540710         -1.2197
O178       O    0.4734459290    0.5965678752    0.4734459290         -1.2176
C179       C    0.3845413525    0.5000000000    0.5000000000          0.3003
C180       C    0.5000000000    0.3845413525    0.5000000000          0.3052
C181       C    0.5000000000    0.5000000000    0.3845413525          0.2948
C182       C    0.6154586475    0.5000000000    0.5000000000          0.2986
C183       C    0.5000000000    0.5000000000    0.6154586475          0.3099
C184       C    0.5000000000    0.6154586475    0.5000000000          0.3004
C668       C    0.5000000000    0.5000000000   -0.1650864016          0.5067
C669       C    0.5095837477    0.4690936992   -0.1943403400          0.4992
C670       C    0.5118719518    0.4757853111   -0.2369643828           0.501
C671       C    0.5049195208    0.5155360673   -0.2550338186          0.5105
C672       C    0.4938607646    0.5465257513   -0.2248531516          0.5192
C673       C    0.4920565135    0.5394480415   -0.1817604145          0.5169
C674       C    0.5187038690    0.5147165777   -0.2977951902          0.5021
H675       H    0.5180271452    0.4482145855   -0.2579675758           0.496
O676       O    0.5128743372    0.4280816283   -0.1836735106          0.4934
N677       N    0.4822163905    0.5730229539   -0.1560251159          0.5251
C678       C    0.4393122731    0.5934296994   -0.2494685322         -0.4293
C679       C    0.5000000000    0.5000000000   -0.3349135984          0.5204
H680       H    0.4678124008    0.4860485265   -0.3335517639         -0.4527
H681       H    0.5508343286    0.5280336363   -0.3020707252          0.4754
H682       H    0.4855696937    0.4174550122   -0.1938826215          0.5172
H683       H    0.4215884507    0.5864666203   -0.2197895464         -0.4168
H684       H    0.4347486193    0.6272888024   -0.2580369129          -0.423
H685       H    0.4273596342    0.5728893025   -0.2754936376          -0.418
O686       O    0.4848366517    0.5855617945   -0.2430696636         -0.4695
H687       H    0.4693603294    0.6003129010   -0.1688751374         -0.4614
H688       H    0.4691110539    0.5678973014   -0.1263682071         -0.4663
C647       C    0.5000000000    0.5000000000    0.1650864016          0.5067
C648       C    0.5099673890    0.5307847171    0.1943403400          0.4992
C649       C    0.5121721923    0.5240651643    0.2369643828           0.501
C650       C    0.5047259178    0.4844039501    0.2550338186          0.5105
C651       C    0.4932825974    0.4535542010    0.2248531516          0.5192
C652       C    0.4915665115    0.4606538029    0.1817604145          0.5169
C653       C    0.5185193919    0.4850519400    0.2977951902          0.5021
H654       H    0.5186698076    0.5515572052    0.2579675758           0.496
O655       O    0.5137677922    0.5717526908    0.1836735106          0.4934
N656       N    0.4813095774    0.4272038691    0.1560251159          0.5251
C657       C    0.4381549791    0.4073323016    0.2494685322         -0.4293
C658       C    0.5000000000    0.5000000000    0.3349135984          0.5204
H659       H    0.4679884051    0.5143507125    0.3335517639         -0.4527
H660       H    0.5504817418    0.4713363039    0.3020707252          0.4754
H661       H    0.4865974241    0.5827180737    0.1938826215          0.5172
H662       H    0.4205191275    0.4145152739    0.2197895464         -0.4168
H663       H    0.4331705717    0.3735325757    0.2580369129          -0.423
H664       H    0.4264587261    0.4280197652    0.2754936376          -0.418
O665       O    0.4837736900    0.4146334100    0.2430696636         -0.4695
H666       H    0.4681151048    0.4000759239    0.1688751374         -0.4614
H667       H    0.4682690023    0.4324921167    0.1263682071         -0.4663
C626       C    0.5000000000    0.8349135984    0.5000000000          0.5067
C627       C    0.5059504577    0.8056596600    0.5318062841          0.4992
C628       C    0.5089961233    0.7630356172    0.5254236929           0.501
C629       C    0.5066807662    0.7449661814    0.4851360021          0.5105
C630       C    0.4992747981    0.7751468484    0.4530765536          0.5192
C631       C    0.4966652596    0.8182395855    0.4598985479          0.5169
C632       C    0.5202782512    0.7022048098    0.4875418740          0.5021
H633       H    0.5119261699    0.7420324242    0.5535207772           0.496
O634       O    0.5044828122    0.8163264894    0.5729239682          0.4934
N635       N    0.4907683225    0.8439748841    0.4254118998          0.5251
C636       C    0.4505079028    0.7505314678    0.4001869686         -0.4293
C637       C    0.5000000000    0.6650864016    0.5000000000          0.5204
H638       H    0.4664165898    0.6664482361    0.5101409919         -0.4527
H639       H    0.5537316396    0.6979292748    0.4780244537          0.4754
H640       H    0.4761336541    0.8061173785    0.5803262491          0.5172
H641       H    0.4320985425    0.7802104536    0.4050566508         -0.4168
H642       H    0.4498849516    0.7419630871    0.3660273766          -0.423
H643       H    0.4362631566    0.7245063624    0.4192096048          -0.418
O644       O    0.4948190822    0.7569303364    0.4132595486         -0.4695
H645       H    0.4811498159    0.8311248626    0.3968198755         -0.4614
H646       H    0.4771587401    0.8736317929    0.4289898080         -0.4663
C605       C    0.5000000000    1.1650864016    0.5000000000          0.5067
C606       C    0.5276565768    1.1943403400    0.4832023391          0.4992
C607       C    0.5249364842    1.2369643828    0.4897303284           0.501
C608       C    0.4933903132    1.2550338186    0.5148957414          0.5105
C609       C    0.4645737495    1.2248531516    0.5307785073          0.5192
C610       C    0.4679121383    1.1817604145    0.5242820115          0.5169
C611       C    0.5042573727    1.2977951902    0.5234155323          0.5021
H612       H    0.5478150114    1.2579675758    0.4731591394           0.496
O613       O    0.5572958906    1.1836735106    0.4546658885          0.4934
N614       N    0.4382953114    1.1560251159    0.5429085070          0.5251
C615       C    0.3926398265    1.2494685322    0.5297641072         -0.4293
C616       C    0.5000000000    1.3349135984    0.5000000000          0.5204
H617       H    0.4851367576    1.3335517639    0.4682231345         -0.4527
H618       H    0.5194981851    1.3020707252    0.5546793791          0.4754
H619       H    0.5438867716    1.1938826215    0.4286147071          0.5172
H620       H    0.3839789802    1.2197895464    0.5128050950         -0.4168
H621       H    0.3667866108    1.2580369129    0.5520996623          -0.423
H622       H    0.3972978079    1.2754936376    0.5064601012          -0.418
O623       O    0.4319495226    1.2430696636    0.5540359172         -0.4695
H624       H    0.4105840807    1.1688751374    0.5548293798         -0.4614
H625       H    0.4318760860    1.1263682071    0.5303858992         -0.4663
C584       C    0.5000000000    0.6650864016    0.0000000000          0.5067
C585       C    0.5208973052    0.6943403400    0.0247052684          0.4992
C586       C    0.5140255203    0.7369643828    0.0230343044           0.501
C587       C    0.4842570703    0.7550338186   -0.0042108475          0.5105
C588       C    0.4640829773    0.7248531516   -0.0302043576          0.5192
C589       C    0.4710198809    0.6817604145   -0.0279177301          0.5169
C590       C    0.4775323903    0.7977951902    0.0078497702          0.5021
H591       H    0.5339554818    0.7579675758    0.0430549925           0.496
O592       O    0.5536989418    0.6836735106    0.0495421476          0.4934
N593       N    0.4480109428    0.6560251159   -0.0542747317          0.5251
C594       C    0.4538895845    0.7494685322   -0.1014196160         -0.4293
C595       C    0.5000000000    0.8349135984    0.0000000000          0.5204
H596       H    0.5290764131    0.8335517639   -0.0196277192         -0.4527
H597       H    0.4490215077    0.8020707252    0.0277706148          0.4754
H598       H    0.5773457527    0.6938826215    0.0322419494          0.5172
H599       H    0.4692940147    0.7197895464   -0.1126143417         -0.4168
H600       H    0.4278025323    0.7580369129   -0.1234816081          -0.423
H601       H    0.4776345674    0.7754936376   -0.1004453115          -0.418
O602       O    0.4360314976    0.7430696636   -0.0588113809         -0.4695
H603       H    0.4319224942    0.6688751374   -0.0797929867         -0.4614
H604       H    0.4593819023    0.6263682071   -0.0625646919         -0.4663
C563       C    0.5000000000    1.3349135984    0.0000000000          0.5067
C564       C    0.4797945603    1.3056596600    0.0252742529          0.4992
C565       C    0.4866174586    1.2630356172    0.0234137136           0.501
C566       C    0.5156203383    1.2449661814   -0.0046450086          0.5105
C567       C    0.5350671835    1.2751468484   -0.0311869905          0.5192
C568       C    0.5281962333    1.3182395855   -0.0287092211          0.5169
C569       C    0.5226762872    1.2022048098    0.0072248441          0.5021
H570       H    0.4672493198    1.2420324242    0.0439784045           0.496
O571       O    0.4476929938    1.3163264894    0.0510095858          0.4934
N572       N    0.5504667758    1.3439748841   -0.0556930257          0.5251
C573       C    0.5432853854    1.2505314678   -0.1026571202         -0.4293
C574       C    0.5000000000    1.1650864016    0.0000000000          0.5204
H575       H    0.4703914204    1.1664482361   -0.0188153440         -0.4527
H576       H    0.5517276670    1.1979292748    0.0263488556          0.4754
H577       H    0.4235763631    1.3061173785    0.0343705758          0.5172
H578       H    0.5275769806    1.2802104536   -0.1134211516         -0.4168
H579       H    0.5687517511    1.2419630871   -0.1254327653          -0.423
H580       H    0.5195764706    1.2245063624   -0.1010259124          -0.418
O581       O    0.5623160533    1.2569303364   -0.0605595354         -0.4695
H582       H    0.5658426976    1.3311248626   -0.0816468413         -0.4614
H583       H    0.5388707019    1.3736317929   -0.0636650537         -0.4663
C542       C    0.5000000000    1.0000000000   -0.3349135984          0.5067
C543       C    0.5095837477    1.0309063008   -0.3056596600          0.4992
C544       C    0.5118719518    1.0242146889   -0.2630356172           0.501
C545       C    0.5049195208    0.9844639327   -0.2449661814          0.5105
C546       C    0.4938607646    0.9534742487   -0.2751468484          0.5192
C547       C    0.4920565135    0.9605519585   -0.3182395855          0.5169
C548       C    0.5187038690    0.9852834223   -0.2022048098          0.5021
H549       H    0.5180271452    1.0517854145   -0.2420324242           0.496
O550       O    0.5128743372    1.0719183717   -0.3163264894          0.4934
N551       N    0.4822163905    0.9269770461   -0.3439748841          0.5251
C552       C    0.4393122731    0.9065703006   -0.2505314678         -0.4293
C553       C    0.5000000000    1.0000000000   -0.1650864016          0.5204
H554       H    0.4678124008    1.0139514735   -0.1664482361         -0.4527
H555       H    0.5508343286    0.9719663637   -0.1979292748          0.4754
H556       H    0.4855696937    1.0825449878   -0.3061173785          0.5172
H557       H    0.4215884507    0.9135333797   -0.2802104536         -0.4168
H558       H    0.4347486193    0.8727111976   -0.2419630871          -0.423
H559       H    0.4273596342    0.9271106975   -0.2245063624          -0.418
O560       O    0.4848366517    0.9144382055   -0.2569303364         -0.4695
H561       H    0.4693603294    0.8996870990   -0.3311248626         -0.4614
H562       H    0.4691110539    0.9321026986   -0.3736317929         -0.4663
C521       C    0.5000000000    1.0000000000    0.1650864016          0.5067
C522       C    0.5306436148    0.9896069002    0.1943403400          0.4992
C523       C    0.5238941494    0.9874954399    0.2369643828           0.501
C524       C    0.4843399481    0.9954906933    0.2550338186          0.5105
C525       C    0.4536517636    1.0073604840    0.2248531516          0.5192
C526       C    0.4607744681    1.0089780065    0.1817604145          0.5169
C527       C    0.4847967018    0.9816895631    0.2977951902          0.5021
H528       H    0.5512934944    0.9806174162    0.2579675758           0.496
O529       O    0.5715549809    0.9852390566    0.1836735106          0.4934
N530       N    0.4274699056    1.0196975628    0.1560251159          0.5251
C531       C    0.4081983583    1.0631234307    0.2494685322         -0.4293
C532       C    0.5000000000    1.0000000000    0.3349135984          0.5204
H533       H    0.5147930065    1.0318096230    0.3335517639         -0.4527
H534       H    0.4706393933    0.9499203784    0.3020707252          0.4754
H535       H    0.5828958848    1.0122548376    0.1938826215          0.5172
H536       H    0.4156250689    1.0806580343    0.2197895464         -0.4168
H537       H    0.3744709615    1.0685758148    0.2580369129          -0.423
H538       H    0.4290459418    1.0745318375    0.2754936376          -0.418
O539       O    0.4148665020    1.0174079101    0.2430696636         -0.4695
H540       H    0.4005274380    1.0332667542    0.1688751374         -0.4614
H541       H    0.4329383842    1.0326635916    0.1263682071         -0.4663
C500       C    0.6650864016    0.5000000000    0.5000000000          0.5067
C501       C    0.6943403400    0.4786987480    0.5243578389          0.4992
C502       C    0.7369643828    0.4855971142    0.5228002473           0.501
C503       C    0.7550338186    0.5158101284    0.4960489355          0.5105
C504       C    0.7248531516    0.5364094776    0.4703911216          0.5192
C505       C    0.6817604145    0.5294358644    0.4725632210          0.5169
C506       C    0.7977951902    0.5223353151    0.5082186420          0.5021
H507       H    0.7579675758    0.4653402078    0.5424900685           0.496
O508       O    0.6836735106    0.4454926113    0.5486512622          0.4934
N509       N    0.6560251159    0.5528756594    0.4465886415          0.5251
C510       C    0.7494685322    0.5477740694    0.3993533547         -0.4293
C511       C    0.8349135984    0.5000000000    0.5000000000          0.5204
H512       H    0.8335517639    0.4712507050    0.4798961896         -0.4527
H513       H    0.8020707252    0.5505143299    0.5286062265          0.4754
H514       H    0.6938826215    0.4221338590    0.5309640573          0.5172
H515       H    0.7197895464    0.5325560520    0.3879065079         -0.4168
H516       H    0.7580369129    0.5742208426    0.3777238845          -0.423
H517       H    0.7754936376    0.5240162632    0.3999365588          -0.418
O518       O    0.7430696636    0.5649281779    0.4422498525         -0.4695
H519       H    0.6688751374    0.5693820928    0.4213387470         -0.4614
H520       H    0.6263682071    0.5416427380    0.4381125789         -0.4663
C479       C    1.1650864016    0.5000000000    0.5000000000          0.5067
C480       C    1.1943403400    0.5223905818    0.4766395741          0.4992
C481       C    1.2369643828    0.5154283243    0.4778807503           0.501
C482       C    1.2550338186    0.4840260427    0.5032254860          0.5105
C483       C    1.2248531516    0.4622773109    0.5279165626          0.5192
C484       C    1.1817604145    0.4693427788    0.5260649524          0.5169
C485       C    1.2977951902    0.4780629930    0.4907706934          0.5021
H486       H    1.2579675758    0.5365626330    0.4591358227           0.496
O487       O    1.1836735106    0.5566707071    0.4538867514          0.4934
N488       N    1.1560251159    0.4447421052    0.5509428467          0.5251
C489       C    1.2494685322    0.4476828957    0.5983617279         -0.4293
C490       C    1.3349135984    0.5000000000    0.5000000000          0.5204
H491       H    1.3335517639    0.5278019502    0.5213947826         -0.4527
H492       H    1.3020707252    0.4508436783    0.4691184559          0.4754
H493       H    1.1938826215    0.5791980068    0.4726214597          0.5172
H494       H    1.2197895464    0.4623627068    0.6104910931         -0.4168
H495       H    1.2580369129    0.4202766565    0.6187618221          -0.423
H496       H    1.2754936376    0.4714425661    0.5988632699          -0.418
O497       O    1.2430696636    0.4325041504    0.5547271240         -0.4695
H498       H    1.1688751374    0.4271006400    0.5754132007         -0.4614
H499       H    1.1263682071    0.4555765373    0.5599226709         -0.4663
C458       C    0.6650864016    0.5000000000    0.0000000000          0.5067
C459       C    0.6943403400    0.5008862630    0.0323459764          0.4992
C460       C    0.7369643828    0.5048956511    0.0265203129           0.501
C461       C    0.7550338186    0.5089302205   -0.0136316629          0.5105
C462       C    0.7248531516    0.5066461972   -0.0464560416          0.5192
C463       C    0.6817604145    0.5029985907   -0.0401279878          0.5169
C464       C    0.7977951902    0.5219818000   -0.0091221075          0.5021
H465       H    0.7579675758    0.5033808972    0.0547291207           0.496
O466       O    0.6836735106    0.4929853188    0.0727241018          0.4934
N467       N    0.6560251159    0.5025857419   -0.0751127320          0.5251
C468       C    0.7494685322    0.4667818458   -0.1063421984         -0.4293
C469       C    0.8349135984    0.5000000000    0.0000000000          0.5204
H470       H    0.8335517639    0.4652414026    0.0047460575         -0.4527
H471       H    0.8020707252    0.5565141459   -0.0132727177          0.4754
H472       H    0.6938826215    0.4638258536    0.0755866383          0.5172
H473       H    0.7197895464    0.4478364363   -0.1044213106         -0.4168
H474       H    0.7580369129    0.4715263436   -0.1401764345          -0.423
H475       H    0.7754936376    0.4497288306   -0.0897902150          -0.418
O476       O    0.7430696636    0.5084930662   -0.0864789896         -0.4695
H477       H    0.6688751374    0.4975725361   -0.1048597871         -0.4614
H478       H    0.6263682071    0.4885833434   -0.0737145201         -0.4663
C437       C    1.3349135984    0.5000000000    0.0000000000          0.5067
C438       C    1.3056596600    0.5211852518    0.0244587971          0.4992
C439       C    1.2630356172    0.5142943659    0.0228684390           0.501
C440       C    1.2449661814    0.4842088274   -0.0040261569          0.5105
C441       C    1.2751468484    0.4637316486   -0.0297815786          0.5192
C442       C    1.3182395855    0.4706948603   -0.0275763619          0.5169
C443       C    1.2022048098    0.4776258784    0.0081124015          0.5021
H444       H    1.2420324242    0.5344574684    0.0426543080           0.496
O445       O    1.3163264894    0.5542755600    0.0489097570          0.4934
N446       N    1.3439748841    0.4473787731   -0.0536620447          0.5251
C447       C    1.2505314678    0.4527047893   -0.1008725531         -0.4293
C448       C    1.1650864016    0.5000000000    0.0000000000          0.5204
H449       H    1.1664482361    0.5288445129   -0.0199669535         -0.4527
H450       H    1.1979292748    0.4493502906    0.0283658362          0.4754
H451       H    1.3061173785    0.5777181062    0.0313337633          0.5172
H452       H    1.2802104536    0.4679770354   -0.1122469475         -0.4168
H453       H    1.2419630871    0.4263611079   -0.1226274662          -0.423
H454       H    1.2245063624    0.4764595555   -0.1001764476          -0.418
O455       O    1.2569303364    0.4353470106   -0.0580580639         -0.4695
H456       H    1.3311248626    0.4309925252   -0.0789901003         -0.4614
H457       H    1.3736317929    0.4586518497   -0.0620846277         -0.4663
C416       C    1.0000000000    0.5000000000   -0.1650864016          0.5067
C417       C    0.9919289681    0.5313353809   -0.1943403400          0.4992
C418       C    0.9893183931    0.5247628284   -0.2369643828           0.501
C419       C    0.9943315591    0.4847212615   -0.2550338186          0.5105
C420       C    1.0038718072    0.4532309413   -0.2248531516          0.5192
C421       C    1.0060177570    0.4602126458   -0.1817604145          0.5169
C422       C    0.9806032957    0.4862094150   -0.2977951902          0.5021
H423       H    0.9845098283    0.5526000161   -0.2579675758           0.496
O424       O    0.9906345938    0.5724588843   -0.1836735106          0.4934
N425       N    1.0142152227    0.4261993495   -0.1560251159          0.5251
C426       C    1.0560773432    0.4037324535   -0.2494685322         -0.4293
C427       C    1.0000000000    0.5000000000   -0.3349135984          0.5204
H428       H    1.0328273467    0.5123713565   -0.3335517639         -0.4527
H429       H    0.9478638404    0.4744689486   -0.3020707252          0.4754
H430       H    1.0184232313    0.5817465186   -0.1938826215          0.5172
H431       H    1.0741185000    0.4098263040   -0.2197895464         -0.4168
H432       H    1.0589907636    0.3696916285   -0.2580369129          -0.423
H433       H    1.0690137044    0.4236679505   -0.2754936376          -0.418
O434       O    1.0109889294    0.4138026030   -0.2430696636         -0.4695
H435       H    1.0257303837    0.3983170866   -0.1688751374         -0.4614
H436       H    1.0275540860    0.4306823048   -0.1263682071         -0.4663
C395       C    1.0000000000    0.5000000000    0.1650864016          0.5067
C396       C    1.0080710319    0.5313353809    0.1943403400          0.4992
C397       C    1.0106816069    0.5247628284    0.2369643828           0.501
C398       C    1.0056684409    0.4847212615    0.2550338186          0.5105
C399       C    0.9961281928    0.4532309413    0.2248531516          0.5192
C400       C    0.9939822430    0.4602126458    0.1817604145          0.5169
C401       C    1.0193967043    0.4862094150    0.2977951902          0.5021
H402       H    1.0154901717    0.5526000161    0.2579675758           0.496
O403       O    1.0093654062    0.5724588843    0.1836735106          0.4934
N404       N    0.9857847773    0.4261993495    0.1560251159          0.5251
C405       C    0.9439226568    0.4037324535    0.2494685322         -0.4293
C406       C    1.0000000000    0.5000000000    0.3349135984          0.5204
H407       H    0.9671726533    0.5123713565    0.3335517639         -0.4527
H408       H    1.0521361596    0.4744689486    0.3020707252          0.4754
H409       H    0.9815767687    0.5817465186    0.1938826215          0.5172
H410       H    0.9258815000    0.4098263040    0.2197895464         -0.4168
H411       H    0.9410092364    0.3696916285    0.2580369129          -0.423
H412       H    0.9309862956    0.4236679505    0.2754936376          -0.418
O413       O    0.9890110706    0.4138026030    0.2430696636         -0.4695
H414       H    0.9742696163    0.3983170866    0.1688751374         -0.4614
H415       H    0.9724459140    0.4306823048    0.1263682071         -0.4663
C374       C    1.0000000000   -0.1650864016    0.5000000000          0.5067
C375       C    1.0277584302   -0.1943403400    0.5166288065          0.4992
C376       C    1.0249986057   -0.2369643828    0.5101175150           0.501
C377       C    0.9932996595   -0.2550338186    0.4851448154          0.5105
C378       C    0.9643868394   -0.2248531516    0.4694379560          0.5192
C379       C    0.9677647566   -0.1817604145    0.4759139867          0.5169
C380       C    1.0041145966   -0.2977951902    0.4765589576          0.5021
H381       H    1.0479776950   -0.2579675758    0.5265489718           0.496
O382       O    1.0575710982   -0.1836735106    0.5449841016          0.4934
N383       N    0.9380349676   -0.1560251159    0.4574683256          0.5251
C384       C    0.8924604341   -0.2494685322    0.4708907113         -0.4293
C385       C    1.0000000000   -0.3349135984    0.5000000000          0.5204
H386       H    0.9853306856   -0.3335517639    0.5318668538         -0.4527
H387       H    1.0191646003   -0.3020707252    0.4452028119          0.4754
H388       H    1.0443209871   -0.1938826215    0.5711165160          0.5172
H389       H    0.8839030989   -0.2197895464    0.4879021888         -0.4168
H390       H    0.8664715828   -0.2580369129    0.4487131235          -0.423
H391       H    0.8972603464   -0.2754936376    0.4941658982          -0.418
O392       O    0.9316214849   -0.2430696636    0.4463797940         -0.4695
H393       H    0.9102516042   -0.1688751374    0.4457165497         -0.4614
H394       H    0.9316921757   -0.1263682071    0.4700298204         -0.4663
C353       C    1.0000000000    0.1650864016    0.5000000000          0.5067
C354       C    0.9736932514    0.1943403400    0.5188415135          0.4992
C355       C    0.9759117664    0.2369643828    0.5121264752           0.501
C356       C    1.0054640192    0.2550338186    0.4846469688          0.5105
C357       C    1.0329966353    0.2248531516    0.4666299865          0.5192
C358       C    1.0301592132    0.1817604145    0.4733603902          0.5169
C359       C    0.9939836457    0.2977951902    0.4769735835          0.5021
H360       H    0.9543522481    0.2579675758    0.5303807483           0.496
O361       O    0.9462973820    0.1836735106    0.5495381627          0.4934
N362       N    1.0582822608    0.1560251159    0.4525470060          0.5251
C363       C    1.1048012053    0.2494685322    0.4622003136         -0.4293
C364       C    1.0000000000    0.3349135984    0.5000000000          0.5204
H365       H    1.0172243004    0.3335517639    0.5305615548         -0.4527
H366       H    0.9764216624    0.3020707252    0.4469521375          0.4754
H367       H    0.9616386275    0.1938826215    0.5745004285          0.5172
H368       H    1.1147200389    0.2197895464    0.4784556233         -0.4168
H369       H    1.1288908665    0.2580369129    0.4379731798          -0.423
H370       H    1.1019193111    0.2754936376    0.4857898911          -0.418
O371       O    1.0637681791    0.2430696636    0.4409714717         -0.4695
H372       H    1.0850123928    0.1688751374    0.4385641750         -0.4614
H373       H    1.0656303206    0.1263682071    0.4645481800         -0.4663
C332       C    0.6650864016   -0.0000000000    0.5000000000          0.5067
C333       C    0.6943403400   -0.0021852009    0.5322842461          0.4992
C334       C    0.7369643828    0.0023585834    0.5268650606           0.501
C335       C    0.7550338186    0.0101827067    0.4872766531          0.5105
C336       C    0.7248531516    0.0110218151    0.4543836068          0.5192
C337       C    0.6817604145    0.0067905387    0.4603372273          0.5169
C338       C    0.7977951902    0.0227478099    0.4930036068          0.5021
H339       H    0.7579675758   -0.0018244729    0.5548030877           0.496
O340       O    0.6836735106   -0.0138797204    0.5717311237          0.4934
N341       N    0.6560251159    0.0096972628    0.4254710012          0.5251
C342       C    0.7494685322   -0.0229836841    0.3909868852         -0.4293
C343       C    0.8349135984   -0.0000000000    0.5000000000          0.5204
H344       H    0.8335517639   -0.0350520302    0.5014284019         -0.4527
H345       H    0.8020707252    0.0575181403    0.4921465125          0.4754
H346       H    0.6938826215   -0.0431792326    0.5718154763          0.5172
H347       H    0.7197895464   -0.0420258739    0.3911024637         -0.4168
H348       H    0.7580369129   -0.0150519629    0.3577550693          -0.423
H349       H    0.7754936376   -0.0415295206    0.4058470814          -0.418
O350       O    0.7430696636    0.0166558615    0.4147161792         -0.4695
H351       H    0.6688751374    0.0075276565    0.3953825927         -0.4614
H352       H    0.6263682071   -0.0043746262    0.4255350205         -0.4663
C311       C    1.3349135984   -0.0000000000    0.5000000000          0.5067
C312       C    1.3056596600   -0.0184864681    0.5265574500          0.4992
C313       C    1.2630356172   -0.0186425719    0.5194871473           0.501
C314       C    1.2449661814    0.0000121984    0.4837036531          0.5105
C315       C    1.2751468484    0.0199297578    0.4575130550          0.5192
C316       C    1.3182395855    0.0195077661    0.4648049149          0.5169
C317       C    1.2022048098   -0.0133739124    0.4803136889          0.5021
H318       H    1.2420324242   -0.0328518969    0.5439028472           0.496
O319       O    1.3163264894   -0.0340327275    0.5646511732          0.4934
N320       N    1.3439748841    0.0390460917    0.4357815347          0.5251
C321       C    1.2505314678    0.0861137911    0.4293139058         -0.4293
C322       C    1.1650864016   -0.0000000000    0.5000000000          0.5204
H323       H    1.1664482361    0.0264570415    0.5230371463         -0.4527
H324       H    1.1979292748   -0.0399684620    0.4578985063          0.4754
H325       H    1.3061173785   -0.0112236535    0.5830417868          0.5172
H326       H    1.2802104536    0.1008997495    0.4413136469         -0.4168
H327       H    1.2419630871    0.1007090015    0.3984230395          -0.423
H328       H    1.2245063624    0.0912907281    0.4525081466          -0.418
O329       O    1.2569303364    0.0403428233    0.4230376428         -0.4695
H330       H    1.3311248626    0.0595571871    0.4136610807         -0.4614
H331       H    1.3736317929    0.0499860692    0.4446324697         -0.4663
C290       C   -0.0000000000   -0.1650864016    0.0000000000          0.5067
C291       C    0.0146554979   -0.1943403400    0.0288489867          0.4992
C292       C    0.0157831888   -0.2369643828    0.0218674495           0.501
C293       C    0.0022307536   -0.2550338186   -0.0161429492          0.5105
C294       C   -0.0138927065   -0.2248531516   -0.0448255334          0.5192
C295       C   -0.0144782956   -0.1817604145   -0.0375449852          0.5169
C296       C    0.0159560362   -0.2977951902   -0.0176583489          0.5021
H297       H    0.0264970102   -0.2579675758    0.0480064118           0.496
O298       O    0.0248110504   -0.1836735106    0.0687198117          0.4934
N299       N   -0.0298362601   -0.1560251159   -0.0689812014          0.5251
C300       C   -0.0755659341   -0.2494685322   -0.0818651240         -0.4293
C301       C   -0.0000000000   -0.3349135984    0.0000000000          0.5204
H302       H   -0.0293758351   -0.3335517639    0.0191766907         -0.4527
H303       H    0.0453824711   -0.3020707252   -0.0362000696          0.4754
H304       H   -0.0003120377   -0.1938826215    0.0837962492          0.5172
H305       H   -0.0918626909   -0.2197895464   -0.0720145367         -0.4168
H306       H   -0.0857708036   -0.2580369129   -0.1144707436          -0.423
H307       H   -0.0838857874   -0.2754936376   -0.0596040925          -0.418
O308       O   -0.0293667338   -0.2430696636   -0.0817822888         -0.4695
H309       H   -0.0471077744   -0.1688751374   -0.0937140604         -0.4614
H310       H   -0.0418902702   -0.1263682071   -0.0617201409         -0.4663
C269       C    0.0000000000    0.1650864016    0.0000000000          0.5067
C270       C    0.0294550953    0.1943403400    0.0133957088          0.4992
C271       C    0.0225287838    0.2369643828    0.0148239096           0.501
C272       C   -0.0160315271    0.2550338186    0.0029259546          0.5105
C273       C   -0.0453837828    0.2248531516   -0.0119435339          0.5192
C274       C   -0.0381353236    0.1817604145   -0.0128430545          0.5169
C275       C   -0.0169526588    0.2977951902    0.0167038838          0.5021
H276       H    0.0491061261    0.2579675758    0.0243986782           0.496
O277       O    0.0697273702    0.1836735106    0.0218195917          0.4934
N278       N   -0.0702055763    0.1560251159   -0.0268288208          0.5251
C279       C   -0.0850527343    0.2494685322   -0.0719593032         -0.4293
C280       C   -0.0000000000    0.3349135984    0.0000000000          0.5204
H281       H    0.0178899251    0.3335517639   -0.0301767416         -0.4527
H282       H   -0.0342060209    0.3020707252    0.0469037510          0.4754
H283       H    0.0837045633    0.1938826215   -0.0039312646          0.5172
H284       H   -0.0759152672    0.2197895464   -0.0886663391         -0.4168
H285       H   -0.1180687147    0.2580369129   -0.0807462724          -0.423
H286       H   -0.0631718492    0.2754936376   -0.0812329406          -0.418
O287       O   -0.0829744355    0.2430696636   -0.0258067990         -0.4695
H288       H   -0.0956613824    0.1688751374   -0.0430158975         -0.4614
H289       H   -0.0634719567    0.1263682071   -0.0391852170         -0.4663
C248       C   -0.1650864016   -0.0000000000    0.0000000000          0.5067
C249       C   -0.1943403400    0.0320409729   -0.0045192597          0.4992
C250       C   -0.2369643828    0.0269653501    0.0004053317           0.501
C251       C   -0.2550338186   -0.0119518942    0.0110780548          0.5105
C252       C   -0.2248531516   -0.0446976245    0.0142988849          0.5192
C253       C   -0.1817604145   -0.0390663230    0.0096472463          0.5169
C254       C   -0.2977951902   -0.0053293434    0.0231950528          0.5021
H255       H   -0.2579675758    0.0545267386   -0.0057915366           0.496
O256       O   -0.1836735106    0.0705365518   -0.0190419434          0.4934
N257       N   -0.1560251159   -0.0736301933    0.0150732611          0.5251
C258       C   -0.2494685322   -0.1103921800   -0.0150225008         -0.4293
C259       C   -0.3349135984   -0.0000000000    0.0000000000          0.5204
H260       H   -0.3335517639   -0.0011157555   -0.0350633747         -0.4527
H261       H   -0.3020707252   -0.0036641990    0.0579360628          0.4754
H262       H   -0.1938826215    0.0684971962   -0.0482705176          0.5172
H263       H   -0.2197895464   -0.1116569909   -0.0340229904         -0.4168
H264       H   -0.2580369129   -0.1429617508   -0.0047031576          -0.423
H265       H   -0.2754936376   -0.0969151751   -0.0345965607          -0.418
O266       O   -0.2430696636   -0.0838524071    0.0227930175         -0.4695
H267       H   -0.1688751374   -0.1037967184    0.0150900221         -0.4614
H268       H   -0.1263682071   -0.0745862046    0.0010337382         -0.4663
C227       C    0.1650864016   -0.0000000000    0.0000000000          0.5067
C228       C    0.1943403400   -0.0070184010   -0.0315878093          0.4992
C229       C    0.2369643828   -0.0098473559   -0.0251062538           0.501
C230       C    0.2550338186   -0.0061763166    0.0150805897          0.5105
C231       C    0.2248531516    0.0023052961    0.0468723943          0.5192
C232       C    0.1817604145    0.0046835711    0.0399663748          0.5169
C233       C    0.2977951902   -0.0198471223    0.0131340821          0.5021
H234       H    0.2579675758   -0.0137221240   -0.0530887034           0.496
O235       O    0.1836735106   -0.0069365406   -0.0727315966          0.4934
N236       N    0.1560251159    0.0117387636    0.0742348301          0.5251
C237       C    0.2494685322    0.0528259810    0.0980893707         -0.4293
C238       C    0.3349135984   -0.0000000000    0.0000000000          0.5204
H239       H    0.3335517639    0.0332227788   -0.0112664157         -0.4527
H240       H    0.3020707252   -0.0529609566    0.0237729005          0.4754
H241       H    0.1938826215    0.0211472032   -0.0810845519          0.5172
H242       H    0.2197895464    0.0710608717    0.0926023758         -0.4168
H243       H    0.2580369129    0.0545991641    0.1322085972          -0.423
H244       H    0.2754936376    0.0664219118    0.0785977277          -0.418
O245       O    0.2430696636    0.0080996257    0.0865167260         -0.4695
H246       H    0.1688751374    0.0223148674    0.1024866538         -0.4614
H247       H    0.1263682071    0.0252201102    0.0702005453         -0.4663
C206       C    0.0000000000    0.0000000000   -0.1650864016          0.5067
C207       C    0.0304774413    0.0108707510   -0.1943403400          0.4992
C208       C    0.0236958008    0.0128764678   -0.2369643828           0.501
C209       C   -0.0157286139    0.0042640093   -0.2550338186          0.5105
C210       C   -0.0462275406   -0.0080839488   -0.2248531516          0.5192
C211       C   -0.0390804263   -0.0095899549   -0.1817604145          0.5169
C212       C   -0.0154876101    0.0180705924   -0.2977951902          0.5021
H213       H    0.0509843046    0.0201818682   -0.2579675758           0.496
O214       O    0.0713155468    0.0158774535   -0.1836735106          0.4934
N215       N   -0.0722133881   -0.0208287097   -0.1560251159          0.5251
C216       C   -0.0908038909   -0.0645504634   -0.2494685322         -0.4293
C217       C    0.0000000000    0.0000000000   -0.3349135984          0.5204
H218       H    0.0152883435   -0.0315745421   -0.3335517639         -0.4527
H219       H   -0.0301397012    0.0496146363   -0.3020707252          0.4754
H220       H    0.0830772876   -0.0109577842   -0.1938826215          0.5172
H221       H   -0.0831040439   -0.0819668554   -0.2197895464         -0.4168
H222       H   -0.1244419546   -0.0705292977   -0.2580369129          -0.423
H223       H   -0.0697805548   -0.0756316557   -0.2754936376          -0.418
O224       O   -0.0848510368   -0.0187363117   -0.2430696636         -0.4695
H225       H   -0.0989404960   -0.0348173202   -0.1688751374         -0.4614
H226       H   -0.0665429350   -0.0337076895   -0.1263682071         -0.4663
C185       C   -0.0000000000    0.0000000000    0.3349135984          0.5067
C186       C    0.0257457514   -0.0196011209    0.3056596600          0.4992
C187       C    0.0237241258   -0.0128242058    0.2630356172           0.501
C188       C   -0.0050136912    0.0155059334    0.2449661814          0.5105
C189       C   -0.0320088479    0.0343186451    0.2751468484          0.5192
C190       C   -0.0293690272    0.0275083114    0.3182395855          0.5169
C191       C    0.0066857029    0.0228410541    0.2022048098          0.5021
H192       H    0.0447418040   -0.0316998122    0.2420324242           0.496
O193       O    0.0522342270   -0.0510841098    0.3163264894          0.4934
N194       N   -0.0568727649    0.0491334629    0.3439748841          0.5251
C195       C   -0.1036535838    0.0408416882    0.2505314678         -0.4293
C196       C   -0.0000000000    0.0000000000    0.1650864016          0.5204
H197       H   -0.0181087516   -0.0300459360    0.1664482361         -0.4527
H198       H    0.0251162333    0.0523372578    0.1979292748          0.4754
H199       H    0.0361711157   -0.0755880887    0.3061173785          0.5172
H200       H   -0.1140425234    0.0248827319    0.2802104536         -0.4168
H201       H   -0.1270260395    0.0657614415    0.2419630871          -0.423
H202       H   -0.1014612604    0.0171780620    0.2245063624          -0.418
O203       O   -0.0620185732    0.0608641471    0.2569303364         -0.4695
H204       H   -0.0831834956    0.0638903246    0.3311248626         -0.4614
H205       H   -0.0645678898    0.0373518156    0.3736317929 -0.46549999999999997
loop_
_geom_bond_atom_site_label_1
_geom_bond_atom_site_label_2
_geom_bond_distance
_geom_bond_site_symmetry_2
_ccdc_geom_bond_type
Zn1          O5 1.942       .   S
Zn1          O6 1.922       .   S
Zn1         O10 1.922       .   S
Zn1         O17 1.922       .   S
Zn2          O5 1.942       .   S
Zn2          O7 1.922       .   S
Zn2          O9 1.922       .   S
Zn2         O13 1.922       .   S
Zn3          O5 1.942       .   S
Zn3          O8 1.922       .   S
Zn3         O11 1.922       .   S
Zn3         O14 1.922       .   S
Zn4          O5 1.942       .   S
Zn4         O12 1.922       .   S
Zn4         O15 1.922       .   S
Zn4         O16 1.922       .   S
O6          C18 1.304       .   A
O7          C19 1.304       .   A
O8          C20 1.304       .   A
O9          C18 1.304       .   A
O10         C20 1.304       .   A
O11         C19 1.304       .   A
O12         C21 1.304       .   A
O13         C22 1.304       .   A
O14         C21 1.304       .   A
O15         C22 1.304       .   A
O16         C23 1.304       .   A
O17         C23 1.304       .   A
C18        C196 1.540       .   S
C19        C227 1.540       .   S
C20        C290 1.540       .   S
C21        C206 1.540       .   S
C22        C269 1.540       .   S
C23        C248 1.540       .   S
Zn24        O28 1.942       .   S
Zn24        O29 1.922       .   S
Zn24        O33 1.922       .   S
Zn24        O40 1.922       .   S
Zn25        O28 1.942       .   S
Zn25        O30 1.922       .   S
Zn25        O32 1.922       .   S
Zn25        O36 1.922       .   S
Zn26        O28 1.942       .   S
Zn26        O31 1.922       .   S
Zn26        O34 1.922       .   S
Zn26        O37 1.922       .   S
Zn27        O28 1.942       .   S
Zn27        O35 1.922       .   S
Zn27        O38 1.922       .   S
Zn27        O39 1.922       .   S
O29         C41 1.304       .   A
O30         C42 1.304       .   A
O31         C43 1.304       .   A
O32         C41 1.304       .   A
O33         C43 1.304       .   A
O34         C42 1.304       .   A
O35         C44 1.304       .   A
O36         C45 1.304       .   A
O37         C44 1.304       .   A
O38         C45 1.304       .   A
O39         C46 1.304       .   A
O40         C46 1.304       .   A
C41        C185 1.540   1_655   S
C42        C343 1.540       .   S
C43        C374 1.540       .   S
C44        C217 1.540   1_656   S
C45        C353 1.540       .   S
C46        C322 1.540       .   S
Zn47        O51 1.942       .   S
Zn47        O52 1.922       .   S
Zn47        O56 1.922       .   S
Zn47        O63 1.922       .   S
Zn48        O51 1.942       .   S
Zn48        O53 1.922       .   S
Zn48        O55 1.922       .   S
Zn48        O59 1.922       .   S
Zn49        O51 1.942       .   S
Zn49        O54 1.922       .   S
Zn49        O57 1.922       .   S
Zn49        O60 1.922       .   S
Zn50        O51 1.942       .   S
Zn50        O58 1.922       .   S
Zn50        O61 1.922       .   S
Zn50        O62 1.922       .   S
O52         C64 1.304       .   A
O53         C65 1.304       .   A
O54         C66 1.304       .   A
O55         C64 1.304       .   A
O56         C66 1.304       .   A
O57         C65 1.304       .   A
O58         C67 1.304       .   A
O59         C68 1.304       .   A
O60         C67 1.304       .   A
O61         C68 1.304       .   A
O62         C69 1.304       .   A
O63         C69 1.304       .   A
C64        C280 1.540   1_655   S
C65        C395 1.540       .   S
C66        C448 1.540       .   S
C67        C301 1.540   1_665   S
C68        C469 1.540       .   S
C69        C416 1.540       .   S
Zn70        O74 1.942       .   S
Zn70        O75 1.922       .   S
Zn70        O79 1.922       .   S
Zn70        O86 1.922       .   S
Zn71        O74 1.942       .   S
Zn71        O76 1.922       .   S
Zn71        O78 1.922       .   S
Zn71        O82 1.922       .   S
Zn72        O74 1.942       .   S
Zn72        O77 1.922       .   S
Zn72        O80 1.922       .   S
Zn72        O83 1.922       .   S
Zn73        O74 1.942       .   S
Zn73        O81 1.922       .   S
Zn73        O84 1.922       .   S
Zn73        O85 1.922       .   S
O75         C87 1.304       .   A
O76         C88 1.304       .   A
O77         C89 1.304       .   A
O78         C87 1.304       .   A
O79         C89 1.304       .   A
O80         C88 1.304       .   A
O81         C90 1.304       .   A
O82         C91 1.304       .   A
O83         C90 1.304       .   A
O84         C91 1.304       .   A
O85         C92 1.304       .   A
O86         C92 1.304       .   A
C87        C364 1.540       .   S
C88        C406 1.540       .   S
C89        C511 1.540       .   S
C90        C385 1.540   1_565   S
C91        C479 1.540       .   S
C92        C427 1.540   1_556   S
Zn93        O97 1.942       .   S
Zn93        O98 1.922       .   S
Zn93       O102 1.922       .   S
Zn93       O109 1.922       .   S
Zn94        O97 1.942       .   S
Zn94        O99 1.922       .   S
Zn94       O101 1.922       .   S
Zn94       O105 1.922       .   S
Zn95        O97 1.942       .   S
Zn95       O100 1.922       .   S
Zn95       O103 1.922       .   S
Zn95       O106 1.922       .   S
Zn96        O97 1.942       .   S
Zn96       O104 1.922       .   S
Zn96       O107 1.922       .   S
Zn96       O108 1.922       .   S
O98        C110 1.304       .   A
O99        C111 1.304       .   A
O100       C112 1.304       .   A
O101       C110 1.304       .   A
O102       C112 1.304       .   A
O103       C111 1.304       .   A
O104       C113 1.304       .   A
O105       C114 1.304       .   A
O106       C113 1.304       .   A
O107       C114 1.304       .   A
O108       C115 1.304       .   A
O109       C115 1.304       .   A
C110       C238 1.540   1_565   S
C111       C521 1.540       .   S
C112       C595 1.540       .   S
C113       C259 1.540   1_665   S
C114       C574 1.540       .   S
C115       C553 1.540       .   S
Zn116      O120 1.942       .   S
Zn116      O121 1.922       .   S
Zn116      O125 1.922       .   S
Zn116      O132 1.922       .   S
Zn117      O120 1.942       .   S
Zn117      O122 1.922       .   S
Zn117      O124 1.922       .   S
Zn117      O128 1.922       .   S
Zn118      O120 1.942       .   S
Zn118      O123 1.922       .   S
Zn118      O126 1.922       .   S
Zn118      O129 1.922       .   S
Zn119      O120 1.942       .   S
Zn119      O127 1.922       .   S
Zn119      O130 1.922       .   S
Zn119      O131 1.922       .   S
O121       C133 1.304       .   A
O122       C134 1.304       .   A
O123       C135 1.304       .   A
O124       C133 1.304       .   A
O125       C135 1.304       .   A
O126       C134 1.304       .   A
O127       C136 1.304       .   A
O128       C137 1.304       .   A
O129       C136 1.304       .   A
O130       C137 1.304       .   A
O131       C138 1.304       .   A
O132       C138 1.304       .   A
C133       C605 1.540       .   S
C134       C542 1.540   1_556   S
C135       C311 1.540   1_465   S
C136       C626 1.540       .   S
C137       C332 1.540   1_565   S
C138       C532 1.540       .   S
Zn139      O143 1.942       .   S
Zn139      O144 1.922       .   S
Zn139      O148 1.922       .   S
Zn139      O155 1.922       .   S
Zn140      O143 1.942       .   S
Zn140      O145 1.922       .   S
Zn140      O147 1.922       .   S
Zn140      O151 1.922       .   S
Zn141      O143 1.942       .   S
Zn141      O146 1.922       .   S
Zn141      O149 1.922       .   S
Zn141      O152 1.922       .   S
Zn142      O143 1.942       .   S
Zn142      O150 1.922       .   S
Zn142      O153 1.922       .   S
Zn142      O154 1.922       .   S
O144       C156 1.304       .   A
O145       C157 1.304       .   A
O146       C158 1.304       .   A
O147       C156 1.304       .   A
O148       C158 1.304       .   A
O149       C157 1.304       .   A
O150       C159 1.304       .   A
O151       C160 1.304       .   A
O152       C159 1.304       .   A
O153       C160 1.304       .   A
O154       C161 1.304       .   A
O155       C161 1.304       .   A
C156       C437 1.540   1_455   S
C157       C647 1.540       .   S
C158       C563 1.540   1_545   S
C159       C458 1.540       .   S
C160       C584 1.540       .   S
C161       C668 1.540       .   S
Zn162      O166 1.942       .   S
Zn162      O167 1.922       .   S
Zn162      O171 1.922       .   S
Zn162      O178 1.922       .   S
Zn163      O166 1.942       .   S
Zn163      O168 1.922       .   S
Zn163      O170 1.922       .   S
Zn163      O174 1.922       .   S
Zn164      O166 1.942       .   S
Zn164      O169 1.922       .   S
Zn164      O172 1.922       .   S
Zn164      O175 1.922       .   S
Zn165      O166 1.942       .   S
Zn165      O173 1.922       .   S
Zn165      O176 1.922       .   S
Zn165      O177 1.922       .   S
O167       C179 1.304       .   A
O168       C180 1.304       .   A
O169       C181 1.304       .   A
O170       C179 1.304       .   A
O171       C181 1.304       .   A
O172       C180 1.304       .   A
O173       C182 1.304       .   A
O174       C183 1.304       .   A
O175       C182 1.304       .   A
O176       C183 1.304       .   A
O177       C184 1.304       .   A
O178       C184 1.304       .   A
C179       C490 1.540   1_455   S
C180       C616 1.540   1_545   S
C181       C658 1.540       .   S
C182       C500 1.540       .   S
C183       C679 1.540   1_556   S
C184       C637 1.540       .   S
C668       C669 0.038       .   A
C668       C673 0.038       .   A
C669       C670 0.037       .   A
C669       O676 0.037       .   A
C670       C671 0.038       .   A
C670       H675 0.031       .   A
C671       C672 0.039       .   A
C671       C674 0.039       .   A
C672       C673 0.038       .   A
C672       O686 0.038       .   A
C673       N677 0.038       .   A
C674       C679 0.038       .   A
C674       H681 0.030       .   A
O676       H682 0.027       .   A
N677       H687 0.028       .   A
N677       H688 0.028       .   A
C678       H683 0.031       .   A
C678       H684 0.031       .   A
C678       H685 0.031       .   A
C678       O686 0.040       .   A
C679       H680 0.030       .   A
C647       C648 0.038       .   A
C647       C652 0.038       .   A
C648       C649 0.037       .   A
C648       O655 0.037       .   A
C649       C650 0.038       .   A
C649       H654 0.031       .   A
C650       C651 0.039       .   A
C650       C653 0.039       .   A
C651       C652 0.038       .   A
C651       O665 0.038       .   A
C652       N656 0.038       .   A
C653       C658 0.038       .   A
C653       H660 0.030       .   A
O655       H661 0.027       .   A
N656       H666 0.028       .   A
N656       H667 0.028       .   A
C657       H662 0.031       .   A
C657       H663 0.031       .   A
C657       H664 0.031       .   A
C657       O665 0.040       .   A
C658       H659 0.030       .   A
C626       C627 0.038       .   A
C626       C631 0.038       .   A
C627       C628 0.037       .   A
C627       O634 0.037       .   A
C628       C629 0.038       .   A
C628       H633 0.031       .   A
C629       C630 0.039       .   A
C629       C632 0.039       .   A
C630       C631 0.038       .   A
C630       O644 0.038       .   A
C631       N635 0.038       .   A
C632       C637 0.038       .   A
C632       H639 0.030       .   A
O634       H640 0.027       .   A
N635       H645 0.028       .   A
N635       H646 0.028       .   A
C636       H641 0.031       .   A
C636       H642 0.031       .   A
C636       H643 0.031       .   A
C636       O644 0.040       .   A
C637       H638 0.030       .   A
C605       C606 0.038       .   A
C605       C610 0.038       .   A
C606       C607 0.037       .   A
C606       O613 0.037       .   A
C607       C608 0.038       .   A
C607       H612 0.031       .   A
C608       C609 0.039       .   A
C608       C611 0.039       .   A
C609       C610 0.038       .   A
C609       O623 0.038       .   A
C610       N614 0.038       .   A
C611       C616 0.038       .   A
C611       H618 0.030       .   A
O613       H619 0.027       .   A
N614       H624 0.028       .   A
N614       H625 0.028       .   A
C615       H620 0.031       .   A
C615       H621 0.031       .   A
C615       H622 0.031       .   A
C615       O623 0.040       .   A
C616       H617 0.030       .   A
C584       C585 0.038       .   A
C584       C589 0.038       .   A
C585       C586 0.037       .   A
C585       O592 0.037       .   A
C586       C587 0.038       .   A
C586       H591 0.031       .   A
C587       C588 0.039       .   A
C587       C590 0.039       .   A
C588       C589 0.038       .   A
C588       O602 0.038       .   A
C589       N593 0.038       .   A
C590       C595 0.038       .   A
C590       H597 0.030       .   A
O592       H598 0.027       .   A
N593       H603 0.028       .   A
N593       H604 0.028       .   A
C594       H599 0.031       .   A
C594       H600 0.031       .   A
C594       H601 0.031       .   A
C594       O602 0.040       .   A
C595       H596 0.030       .   A
C563       C564 0.038       .   A
C563       C568 0.038       .   A
C564       C565 0.037       .   A
C564       O571 0.037       .   A
C565       C566 0.038       .   A
C565       H570 0.031       .   A
C566       C567 0.039       .   A
C566       C569 0.039       .   A
C567       C568 0.038       .   A
C567       O581 0.038       .   A
C568       N572 0.038       .   A
C569       C574 0.038       .   A
C569       H576 0.030       .   A
O571       H577 0.027       .   A
N572       H582 0.028       .   A
N572       H583 0.028       .   A
C573       H578 0.031       .   A
C573       H579 0.031       .   A
C573       H580 0.031       .   A
C573       O581 0.040       .   A
C574       H575 0.030       .   A
C542       C543 0.038       .   A
C542       C547 0.038       .   A
C543       C544 0.037       .   A
C543       O550 0.037       .   A
C544       C545 0.038       .   A
C544       H549 0.031       .   A
C545       C546 0.039       .   A
C545       C548 0.039       .   A
C546       C547 0.038       .   A
C546       O560 0.038       .   A
C547       N551 0.038       .   A
C548       C553 0.038       .   A
C548       H555 0.030       .   A
O550       H556 0.027       .   A
N551       H561 0.028       .   A
N551       H562 0.028       .   A
C552       H557 0.031       .   A
C552       H558 0.031       .   A
C552       H559 0.031       .   A
C552       O560 0.040       .   A
C553       H554 0.030       .   A
C521       C522 0.038       .   A
C521       C526 0.038       .   A
C522       C523 0.037       .   A
C522       O529 0.037       .   A
C523       C524 0.038       .   A
C523       H528 0.031       .   A
C524       C525 0.039       .   A
C524       C527 0.039       .   A
C525       C526 0.038       .   A
C525       O539 0.038       .   A
C526       N530 0.038       .   A
C527       C532 0.038       .   A
C527       H534 0.030       .   A
O529       H535 0.027       .   A
N530       H540 0.028       .   A
N530       H541 0.028       .   A
C531       H536 0.031       .   A
C531       H537 0.031       .   A
C531       H538 0.031       .   A
C531       O539 0.040       .   A
C532       H533 0.030       .   A
C500       C501 0.038       .   A
C500       C505 0.038       .   A
C501       C502 0.037       .   A
C501       O508 0.037       .   A
C502       C503 0.038       .   A
C502       H507 0.031       .   A
C503       C504 0.039       .   A
C503       C506 0.039       .   A
C504       C505 0.038       .   A
C504       O518 0.038       .   A
C505       N509 0.038       .   A
C506       C511 0.038       .   A
C506       H513 0.030       .   A
O508       H514 0.027       .   A
N509       H519 0.028       .   A
N509       H520 0.028       .   A
C510       H515 0.031       .   A
C510       H516 0.031       .   A
C510       H517 0.031       .   A
C510       O518 0.040       .   A
C511       H512 0.030       .   A
C479       C480 0.038       .   A
C479       C484 0.038       .   A
C480       C481 0.037       .   A
C480       O487 0.037       .   A
C481       C482 0.038       .   A
C481       H486 0.031       .   A
C482       C483 0.039       .   A
C482       C485 0.039       .   A
C483       C484 0.038       .   A
C483       O497 0.038       .   A
C484       N488 0.038       .   A
C485       C490 0.038       .   A
C485       H492 0.030       .   A
O487       H493 0.027       .   A
N488       H498 0.028       .   A
N488       H499 0.028       .   A
C489       H494 0.031       .   A
C489       H495 0.031       .   A
C489       H496 0.031       .   A
C489       O497 0.040       .   A
C490       H491 0.030       .   A
C458       C459 0.038       .   A
C458       C463 0.038       .   A
C459       C460 0.037       .   A
C459       O466 0.037       .   A
C460       C461 0.038       .   A
C460       H465 0.031       .   A
C461       C462 0.039       .   A
C461       C464 0.039       .   A
C462       C463 0.038       .   A
C462       O476 0.038       .   A
C463       N467 0.038       .   A
C464       C469 0.038       .   A
C464       H471 0.030       .   A
O466       H472 0.027       .   A
N467       H477 0.028       .   A
N467       H478 0.028       .   A
C468       H473 0.031       .   A
C468       H474 0.031       .   A
C468       H475 0.031       .   A
C468       O476 0.040       .   A
C469       H470 0.030       .   A
C437       C438 0.038       .   A
C437       C442 0.038       .   A
C438       C439 0.037       .   A
C438       O445 0.037       .   A
C439       C440 0.038       .   A
C439       H444 0.031       .   A
C440       C441 0.039       .   A
C440       C443 0.039       .   A
C441       C442 0.038       .   A
C441       O455 0.038       .   A
C442       N446 0.038       .   A
C443       C448 0.038       .   A
C443       H450 0.030       .   A
O445       H451 0.027       .   A
N446       H456 0.028       .   A
N446       H457 0.028       .   A
C447       H452 0.031       .   A
C447       H453 0.031       .   A
C447       H454 0.031       .   A
C447       O455 0.040       .   A
C448       H449 0.030       .   A
C416       C417 0.038       .   A
C416       C421 0.038       .   A
C417       C418 0.037       .   A
C417       O424 0.037       .   A
C418       C419 0.038       .   A
C418       H423 0.031       .   A
C419       C420 0.039       .   A
C419       C422 0.039       .   A
C420       C421 0.038       .   A
C420       O434 0.038       .   A
C421       N425 0.038       .   A
C422       C427 0.038       .   A
C422       H429 0.030       .   A
O424       H430 0.027       .   A
N425       H435 0.028       .   A
N425       H436 0.028       .   A
C426       H431 0.031       .   A
C426       H432 0.031       .   A
C426       H433 0.031       .   A
C426       O434 0.040       .   A
C427       H428 0.030       .   A
C395       C396 0.038       .   A
C395       C400 0.038       .   A
C396       C397 0.037       .   A
C396       O403 0.037       .   A
C397       C398 0.038       .   A
C397       H402 0.031       .   A
C398       C399 0.039       .   A
C398       C401 0.039       .   A
C399       C400 0.038       .   A
C399       O413 0.038       .   A
C400       N404 0.038       .   A
C401       C406 0.038       .   A
C401       H408 0.030       .   A
O403       H409 0.027       .   A
N404       H414 0.028       .   A
N404       H415 0.028       .   A
C405       H410 0.031       .   A
C405       H411 0.031       .   A
C405       H412 0.031       .   A
C405       O413 0.040       .   A
C406       H407 0.030       .   A
C374       C375 0.038       .   A
C374       C379 0.038       .   A
C375       C376 0.037       .   A
C375       O382 0.037       .   A
C376       C377 0.038       .   A
C376       H381 0.031       .   A
C377       C378 0.039       .   A
C377       C380 0.039       .   A
C378       C379 0.038       .   A
C378       O392 0.038       .   A
C379       N383 0.038       .   A
C380       C385 0.038       .   A
C380       H387 0.030       .   A
O382       H388 0.027       .   A
N383       H393 0.028       .   A
N383       H394 0.028       .   A
C384       H389 0.031       .   A
C384       H390 0.031       .   A
C384       H391 0.031       .   A
C384       O392 0.040       .   A
C385       H386 0.030       .   A
C353       C354 0.038       .   A
C353       C358 0.038       .   A
C354       C355 0.037       .   A
C354       O361 0.037       .   A
C355       C356 0.038       .   A
C355       H360 0.031       .   A
C356       C357 0.039       .   A
C356       C359 0.039       .   A
C357       C358 0.038       .   A
C357       O371 0.038       .   A
C358       N362 0.038       .   A
C359       C364 0.038       .   A
C359       H366 0.030       .   A
O361       H367 0.027       .   A
N362       H372 0.028       .   A
N362       H373 0.028       .   A
C363       H368 0.031       .   A
C363       H369 0.031       .   A
C363       H370 0.031       .   A
C363       O371 0.040       .   A
C364       H365 0.030       .   A
C332       C333 0.038       .   A
C332       C337 0.038       .   A
C333       C334 0.037       .   A
C333       O340 0.037       .   A
C334       C335 0.038       .   A
C334       H339 0.031       .   A
C335       C336 0.039       .   A
C335       C338 0.039       .   A
C336       C337 0.038       .   A
C336       O350 0.038       .   A
C337       N341 0.038       .   A
C338       C343 0.038       .   A
C338       H345 0.030       .   A
O340       H346 0.027       .   A
N341       H351 0.028       .   A
N341       H352 0.028       .   A
C342       H347 0.031       .   A
C342       H348 0.031       .   A
C342       H349 0.031       .   A
C342       O350 0.040       .   A
C343       H344 0.030       .   A
C311       C312 0.038       .   A
C311       C316 0.038       .   A
C312       C313 0.037       .   A
C312       O319 0.037       .   A
C313       C314 0.038       .   A
C313       H318 0.031       .   A
C314       C315 0.039       .   A
C314       C317 0.039       .   A
C315       C316 0.038       .   A
C315       O329 0.038       .   A
C316       N320 0.038       .   A
C317       C322 0.038       .   A
C317       H324 0.030       .   A
O319       H325 0.027       .   A
N320       H330 0.028       .   A
N320       H331 0.028       .   A
C321       H326 0.031       .   A
C321       H327 0.031       .   A
C321       H328 0.031       .   A
C321       O329 0.040       .   A
C322       H323 0.030       .   A
C290       C291 0.038       .   A
C290       C295 0.038       .   A
C291       C292 0.037       .   A
C291       O298 0.037       .   A
C292       C293 0.038       .   A
C292       H297 0.031       .   A
C293       C294 0.039       .   A
C293       C296 0.039       .   A
C294       C295 0.038       .   A
C294       O308 0.038       .   A
C295       N299 0.038       .   A
C296       C301 0.038       .   A
C296       H303 0.030       .   A
O298       H304 0.027       .   A
N299       H309 0.028       .   A
N299       H310 0.028       .   A
C300       H305 0.031       .   A
C300       H306 0.031       .   A
C300       H307 0.031       .   A
C300       O308 0.040       .   A
C301       H302 0.030       .   A
C269       C270 0.038       .   A
C269       C274 0.038       .   A
C270       C271 0.037       .   A
C270       O277 0.037       .   A
C271       C272 0.038       .   A
C271       H276 0.031       .   A
C272       C273 0.039       .   A
C272       C275 0.039       .   A
C273       C274 0.038       .   A
C273       O287 0.038       .   A
C274       N278 0.038       .   A
C275       C280 0.038       .   A
C275       H282 0.030       .   A
O277       H283 0.027       .   A
N278       H288 0.028       .   A
N278       H289 0.028       .   A
C279       H284 0.031       .   A
C279       H285 0.031       .   A
C279       H286 0.031       .   A
C279       O287 0.040       .   A
C280       H281 0.030       .   A
C248       C249 0.038       .   A
C248       C253 0.038       .   A
C249       C250 0.037       .   A
C249       O256 0.037       .   A
C250       C251 0.038       .   A
C250       H255 0.031       .   A
C251       C252 0.039       .   A
C251       C254 0.039       .   A
C252       C253 0.038       .   A
C252       O266 0.038       .   A
C253       N257 0.038       .   A
C254       C259 0.038       .   A
C254       H261 0.030       .   A
O256       H262 0.027       .   A
N257       H267 0.028       .   A
N257       H268 0.028       .   A
C258       H263 0.031       .   A
C258       H264 0.031       .   A
C258       H265 0.031       .   A
C258       O266 0.040       .   A
C259       H260 0.030       .   A
C227       C228 0.038       .   A
C227       C232 0.038       .   A
C228       C229 0.037       .   A
C228       O235 0.037       .   A
C229       C230 0.038       .   A
C229       H234 0.031       .   A
C230       C231 0.039       .   A
C230       C233 0.039       .   A
C231       C232 0.038       .   A
C231       O245 0.038       .   A
C232       N236 0.038       .   A
C233       C238 0.038       .   A
C233       H240 0.030       .   A
O235       H241 0.027       .   A
N236       H246 0.028       .   A
N236       H247 0.028       .   A
C237       H242 0.031       .   A
C237       H243 0.031       .   A
C237       H244 0.031       .   A
C237       O245 0.040       .   A
C238       H239 0.030       .   A
C206       C207 0.038       .   A
C206       C211 0.038       .   A
C207       C208 0.037       .   A
C207       O214 0.037       .   A
C208       C209 0.038       .   A
C208       H213 0.031       .   A
C209       C210 0.039       .   A
C209       C212 0.039       .   A
C210       C211 0.038       .   A
C210       O224 0.038       .   A
C211       N215 0.038       .   A
C212       C217 0.038       .   A
C212       H219 0.030       .   A
O214       H220 0.027       .   A
N215       H225 0.028       .   A
N215       H226 0.028       .   A
C216       H221 0.031       .   A
C216       H222 0.031       .   A
C216       H223 0.031       .   A
C216       O224 0.040       .   A
C217       H218 0.030       .   A
C185       C186 0.038       .   A
C185       C190 0.038       .   A
C186       C187 0.037       .   A
C186       O193 0.037       .   A
C187       C188 0.038       .   A
C187       H192 0.031       .   A
C188       C189 0.039       .   A
C188       C191 0.039       .   A
C189       C190 0.038       .   A
C189       O203 0.038       .   A
C190       N194 0.038       .   A
C191       C196 0.038       .   A
C191       H198 0.030       .   A
O193       H199 0.027       .   A
N194       H204 0.028       .   A
N194       H205 0.028       .   A
C195       H200 0.031       .   A
C195       H201 0.031       .   A
C195       H202 0.031       .   A
C195       O203 0.040       .   A
C196       H197 0.030       .   A
