data_pcu_v1-6c_Zn_1_Ch_1-44_fer_tobacco
_audit_creation_date              2021-04-07
_audit_creation_method            'tobacco_3.0'
_symmetry_space_group_name_H-M    'P1'
_symmetry_Int_Tables_number       1
_symmetry_cell_setting            triclinic
loop_
_symmetry_equiv_pos_as_xyz
  x,y,z
_cell_length_a                    42.04163476708786
_cell_length_b                    42.04163476708786
_cell_length_c                    42.04163476708786
_cell_angle_alpha                 90.0
_cell_angle_beta                  90.0
_cell_angle_gamma                 90.0
loop_
_atom_site_label
_atom_site_type_symbol
_atom_site_fract_x
_atom_site_fract_y
_atom_site_fract_z
_atom_site_charge
Zn1       Zn   -0.0266688012   -0.0266688012    0.0266688012          1.4972
Zn2       Zn    0.0266688012    0.0266688012    0.0266688012          1.4936
Zn3       Zn    0.0266688012   -0.0266688012   -0.0266688012          1.4911
Zn4       Zn   -0.0266688012    0.0266688012   -0.0266688012          1.4948
O5         O    0.0000000000    0.0000000000    0.0000000000         -2.3453
O6         O   -0.0195996184   -0.0195996184    0.0712769619         -1.2516
O7         O    0.0712769619    0.0195996184    0.0195996184         -1.2498
O8         O    0.0195996184   -0.0712769619   -0.0195996184          -1.245
O9         O    0.0195996184    0.0195996184    0.0712769619         -1.2518
O10        O   -0.0195996184   -0.0712769619    0.0195996184         -1.2477
O11        O    0.0712769619   -0.0195996184   -0.0195996184         -1.2536
O12        O   -0.0195996184    0.0195996184   -0.0712769619         -1.2475
O13        O    0.0195996184    0.0712769619    0.0195996184         -1.2551
O14        O    0.0195996184   -0.0195996184   -0.0712769619          -1.249
O15        O   -0.0195996184    0.0712769619   -0.0195996184         -1.2536
O16        O   -0.0712769619    0.0195996184   -0.0195996184         -1.2527
O17        O   -0.0712769619   -0.0195996184    0.0195996184         -1.2506
C18        C   -0.0000000000   -0.0000000000    0.0852202827          0.2673
C19        C    0.0852202827   -0.0000000000   -0.0000000000          0.2722
C20        C   -0.0000000000   -0.0852202827    0.0000000000          0.2618
C21        C    0.0000000000    0.0000000000   -0.0852202827          0.2656
C22        C    0.0000000000    0.0852202827   -0.0000000000          0.2769
C23        C   -0.0852202827    0.0000000000    0.0000000000          0.2674
Zn24      Zn    0.9733311988   -0.0266688012    0.4733311988          1.4972
Zn25      Zn    1.0266688012   -0.0266688012    0.5266688012          1.4936
Zn26      Zn    1.0266688012    0.0266688012    0.4733311988          1.4911
Zn27      Zn    0.9733311988    0.0266688012    0.5266688012          1.4948
O28        O    1.0000000000    0.0000000000    0.5000000000         -2.3453
O29        O    0.9804003816   -0.0712769619    0.4804003816         -1.2516
O30        O    1.0712769619   -0.0195996184    0.5195996184         -1.2498
O31        O    1.0195996184    0.0195996184    0.4287230381          -1.245
O32        O    1.0195996184   -0.0712769619    0.5195996184         -1.2518
O33        O    0.9804003816   -0.0195996184    0.4287230381         -1.2477
O34        O    1.0712769619    0.0195996184    0.4804003816         -1.2536
O35        O    0.9804003816    0.0712769619    0.5195996184         -1.2475
O36        O    1.0195996184   -0.0195996184    0.5712769619         -1.2551
O37        O    1.0195996184    0.0712769619    0.4804003816          -1.249
O38        O    0.9804003816    0.0195996184    0.5712769619         -1.2536
O39        O    0.9287230381    0.0195996184    0.5195996184         -1.2527
O40        O    0.9287230381   -0.0195996184    0.4804003816         -1.2506
C41        C    1.0000000000   -0.0852202827    0.5000000000          0.2673
C42        C    1.0852202827    0.0000000000    0.5000000000          0.2722
C43        C    1.0000000000    0.0000000000    0.4147797173          0.2618
C44        C    1.0000000000    0.0852202827    0.5000000000          0.2656
C45        C    1.0000000000    0.0000000000    0.5852202827          0.2769
C46        C    0.9147797173    0.0000000000    0.5000000000          0.2674
Zn47      Zn    1.0266688012    0.4733311988   -0.0266688012          1.4972
Zn48      Zn    0.9733311988    0.4733311988    0.0266688012          1.4936
Zn49      Zn    1.0266688012    0.5266688012    0.0266688012          1.4911
Zn50      Zn    0.9733311988    0.5266688012   -0.0266688012          1.4948
O51        O    1.0000000000    0.5000000000    0.0000000000         -2.3453
O52        O    1.0195996184    0.4287230381   -0.0195996184         -1.2516
O53        O    0.9804003816    0.4804003816    0.0712769619         -1.2498
O54        O    1.0712769619    0.5195996184    0.0195996184          -1.245
O55        O    0.9804003816    0.4287230381    0.0195996184         -1.2518
O56        O    1.0712769619    0.4804003816   -0.0195996184         -1.2477
O57        O    1.0195996184    0.5195996184    0.0712769619         -1.2536
O58        O    0.9804003816    0.5712769619   -0.0195996184         -1.2475
O59        O    0.9287230381    0.4804003816    0.0195996184         -1.2551
O60        O    1.0195996184    0.5712769619    0.0195996184          -1.249
O61        O    0.9287230381    0.5195996184   -0.0195996184         -1.2536
O62        O    0.9804003816    0.5195996184   -0.0712769619         -1.2527
O63        O    1.0195996184    0.4804003816   -0.0712769619         -1.2506
C64        C    1.0000000000    0.4147797173    0.0000000000          0.2673
C65        C    1.0000000000    0.5000000000    0.0852202827          0.2722
C66        C    1.0852202827    0.5000000000    0.0000000000          0.2618
C67        C    1.0000000000    0.5852202827    0.0000000000          0.2656
C68        C    0.9147797173    0.5000000000    0.0000000000          0.2769
C69        C    1.0000000000    0.5000000000   -0.0852202827          0.2674
Zn70      Zn    0.9733311988    0.4733311988    0.5266688012          1.4972
Zn71      Zn    1.0266688012    0.4733311988    0.4733311988          1.4936
Zn72      Zn    0.9733311988    0.5266688012    0.4733311988          1.4911
Zn73      Zn    1.0266688012    0.5266688012    0.5266688012          1.4948
O74        O    1.0000000000    0.5000000000    0.5000000000         -2.3453
O75        O    0.9804003816    0.4287230381    0.5195996184         -1.2516
O76        O    1.0195996184    0.4804003816    0.4287230381         -1.2498
O77        O    0.9287230381    0.5195996184    0.4804003816          -1.245
O78        O    1.0195996184    0.4287230381    0.4804003816         -1.2518
O79        O    0.9287230381    0.4804003816    0.5195996184         -1.2477
O80        O    0.9804003816    0.5195996184    0.4287230381         -1.2536
O81        O    1.0195996184    0.5712769619    0.5195996184         -1.2475
O82        O    1.0712769619    0.4804003816    0.4804003816         -1.2551
O83        O    0.9804003816    0.5712769619    0.4804003816          -1.249
O84        O    1.0712769619    0.5195996184    0.5195996184         -1.2536
O85        O    1.0195996184    0.5195996184    0.5712769619         -1.2527
O86        O    0.9804003816    0.4804003816    0.5712769619         -1.2506
C87        C    1.0000000000    0.4147797173    0.5000000000          0.2673
C88        C    1.0000000000    0.5000000000    0.4147797173          0.2722
C89        C    0.9147797173    0.5000000000    0.5000000000          0.2618
C90        C    1.0000000000    0.5852202827    0.5000000000          0.2656
C91        C    1.0852202827    0.5000000000    0.5000000000          0.2769
C92        C    1.0000000000    0.5000000000    0.5852202827          0.2674
Zn93      Zn    0.4733311988    0.9733311988   -0.0266688012          1.4972
Zn94      Zn    0.4733311988    1.0266688012    0.0266688012          1.4936
Zn95      Zn    0.5266688012    0.9733311988    0.0266688012          1.4911
Zn96      Zn    0.5266688012    1.0266688012   -0.0266688012          1.4948
O97        O    0.5000000000    1.0000000000    0.0000000000         -2.3453
O98        O    0.4287230381    0.9804003816   -0.0195996184         -1.2516
O99        O    0.4804003816    1.0195996184    0.0712769619         -1.2498
O100       O    0.5195996184    0.9287230381    0.0195996184          -1.245
O101       O    0.4287230381    1.0195996184    0.0195996184         -1.2518
O102       O    0.4804003816    0.9287230381   -0.0195996184         -1.2477
O103       O    0.5195996184    0.9804003816    0.0712769619         -1.2536
O104       O    0.5712769619    1.0195996184   -0.0195996184         -1.2475
O105       O    0.4804003816    1.0712769619    0.0195996184         -1.2551
O106       O    0.5712769619    0.9804003816    0.0195996184          -1.249
O107       O    0.5195996184    1.0712769619   -0.0195996184         -1.2536
O108       O    0.5195996184    1.0195996184   -0.0712769619         -1.2527
O109       O    0.4804003816    0.9804003816   -0.0712769619         -1.2506
C110       C    0.4147797173    1.0000000000    0.0000000000          0.2673
C111       C    0.5000000000    1.0000000000    0.0852202827          0.2722
C112       C    0.5000000000    0.9147797173    0.0000000000          0.2618
C113       C    0.5852202827    1.0000000000    0.0000000000          0.2656
C114       C    0.5000000000    1.0852202827    0.0000000000          0.2769
C115       C    0.5000000000    1.0000000000   -0.0852202827          0.2674
Zn116     Zn    0.4733311988    0.9733311988    0.4733311988          1.4972
Zn117     Zn    0.4733311988    1.0266688012    0.5266688012          1.4936
Zn118     Zn    0.5266688012    0.9733311988    0.5266688012          1.4911
Zn119     Zn    0.5266688012    1.0266688012    0.4733311988          1.4948
O120       O    0.5000000000    1.0000000000    0.5000000000         -2.3453
O121       O    0.4287230381    0.9804003816    0.4804003816         -1.2516
O122       O    0.4804003816    1.0195996184    0.5712769619         -1.2498
O123       O    0.5195996184    0.9287230381    0.5195996184          -1.245
O124       O    0.4287230381    1.0195996184    0.5195996184         -1.2518
O125       O    0.4804003816    0.9287230381    0.4804003816         -1.2477
O126       O    0.5195996184    0.9804003816    0.5712769619         -1.2536
O127       O    0.5712769619    1.0195996184    0.4804003816         -1.2475
O128       O    0.4804003816    1.0712769619    0.5195996184         -1.2551
O129       O    0.5712769619    0.9804003816    0.5195996184          -1.249
O130       O    0.5195996184    1.0712769619    0.4804003816         -1.2536
O131       O    0.5195996184    1.0195996184    0.4287230381         -1.2527
O132       O    0.4804003816    0.9804003816    0.4287230381         -1.2506
C133       C    0.4147797173    1.0000000000    0.5000000000          0.2673
C134       C    0.5000000000    1.0000000000    0.5852202827          0.2722
C135       C    0.5000000000    0.9147797173    0.5000000000          0.2618
C136       C    0.5852202827    1.0000000000    0.5000000000          0.2656
C137       C    0.5000000000    1.0852202827    0.5000000000          0.2769
C138       C    0.5000000000    1.0000000000    0.4147797173          0.2674
Zn139     Zn    0.4733311988    0.4733311988   -0.0266688012          1.4972
Zn140     Zn    0.5266688012    0.5266688012   -0.0266688012          1.4936
Zn141     Zn    0.4733311988    0.5266688012    0.0266688012          1.4911
Zn142     Zn    0.5266688012    0.4733311988    0.0266688012          1.4948
O143       O    0.5000000000    0.5000000000    0.0000000000         -2.3453
O144       O    0.4804003816    0.4804003816   -0.0712769619         -1.2516
O145       O    0.5195996184    0.5712769619   -0.0195996184         -1.2498
O146       O    0.4287230381    0.5195996184    0.0195996184          -1.245
O147       O    0.5195996184    0.5195996184   -0.0712769619         -1.2518
O148       O    0.4287230381    0.4804003816   -0.0195996184         -1.2477
O149       O    0.4804003816    0.5712769619    0.0195996184         -1.2536
O150       O    0.5195996184    0.4804003816    0.0712769619         -1.2475
O151       O    0.5712769619    0.5195996184   -0.0195996184         -1.2551
O152       O    0.4804003816    0.5195996184    0.0712769619          -1.249
O153       O    0.5712769619    0.4804003816    0.0195996184         -1.2536
O154       O    0.5195996184    0.4287230381    0.0195996184         -1.2527
O155       O    0.4804003816    0.4287230381   -0.0195996184         -1.2506
C156       C    0.5000000000    0.5000000000   -0.0852202827          0.2673
C157       C    0.5000000000    0.5852202827    0.0000000000          0.2722
C158       C    0.4147797173    0.5000000000    0.0000000000          0.2618
C159       C    0.5000000000    0.5000000000    0.0852202827          0.2656
C160       C    0.5852202827    0.5000000000    0.0000000000          0.2769
C161       C    0.5000000000    0.4147797173    0.0000000000          0.2674
Zn162     Zn    0.4733311988    0.4733311988    0.4733311988          1.4972
Zn163     Zn    0.4733311988    0.5266688012    0.5266688012          1.4936
Zn164     Zn    0.5266688012    0.4733311988    0.5266688012          1.4911
Zn165     Zn    0.5266688012    0.5266688012    0.4733311988          1.4948
O166       O    0.5000000000    0.5000000000    0.5000000000         -2.3453
O167       O    0.4287230381    0.4804003816    0.4804003816         -1.2516
O168       O    0.4804003816    0.5195996184    0.5712769619         -1.2498
O169       O    0.5195996184    0.4287230381    0.5195996184          -1.245
O170       O    0.4287230381    0.5195996184    0.5195996184         -1.2518
O171       O    0.4804003816    0.4287230381    0.4804003816         -1.2477
O172       O    0.5195996184    0.4804003816    0.5712769619         -1.2536
O173       O    0.5712769619    0.5195996184    0.4804003816         -1.2475
O174       O    0.4804003816    0.5712769619    0.5195996184         -1.2551
O175       O    0.5712769619    0.4804003816    0.5195996184          -1.249
O176       O    0.5195996184    0.5712769619    0.4804003816         -1.2536
O177       O    0.5195996184    0.5195996184    0.4287230381         -1.2527
O178       O    0.4804003816    0.4804003816    0.4287230381         -1.2506
C179       C    0.4147797173    0.5000000000    0.5000000000          0.2673
C180       C    0.5000000000    0.5000000000    0.5852202827          0.2722
C181       C    0.5000000000    0.4147797173    0.5000000000          0.2618
C182       C    0.5852202827    0.5000000000    0.5000000000          0.2656
C183       C    0.5000000000    0.5852202827    0.5000000000          0.2769
C184       C    0.5000000000    0.5000000000    0.4147797173          0.2674
C990       C    0.5000000000    0.5000000000   -0.1218506375          0.4922
C991       C    0.4989988732    0.4729887001   -0.1384903236         -0.5056
C992       C    0.5012475570    0.4728514546   -0.1700910376          -0.506
C993       C    0.5047557309    0.4995271753   -0.1879203018          0.4913
C994       C    0.5055582076    0.5265745738   -0.1702840524          0.4892
C995       C    0.5032692249    0.5268593884   -0.1384595971          0.4896
C996       C    0.5072118006    0.4984632920   -0.2207056672          0.4907
H997       H    0.4992151479    0.4492136994   -0.1798742577         -0.5033
H998       H    0.4961288376    0.4501836764   -0.1265790590         -0.5032
H999       H    0.5043983092    0.5495816682   -0.1261442974          0.4876
H1000      H    0.5088321926    0.5497944499   -0.1806348783          0.4864
C1001      C    0.5104161834    0.4702273416   -0.2357142210          0.4893
C1002      C    0.5127224439    0.4664295837   -0.2671732230          0.4889
C1003      C    0.5122309547    0.4917347996   -0.2866387651          0.4897
C1004      C    0.5094253041    0.5203973320   -0.2729853430          0.4909
C1005      C    0.5068701238    0.5239413298   -0.2407952950          0.4915
C1006      C    0.5148005102    0.4865459692   -0.3231171159          0.4893
C1007      C    0.5167892130    0.4323831985   -0.2793012751          0.4867
H1008      H    0.5119998884    0.4481878052   -0.2228109792          0.4878
C1009      C    0.5040849119    0.5502168447   -0.2381069936         -0.5068
H1010      H    0.5092626034    0.5405288968   -0.2896434618          0.4914
N1011      N    0.4930566334    0.5749188921   -0.2347895422          -0.498
C1012      C    0.5157928645    0.5142448013   -0.3476168218          0.4891
C1013      C    0.5000000000    0.5000000000   -0.3781493625         -0.4956
N1014      N    0.4931613233    0.4666506880   -0.3695841633         -0.4894
N1015      N    0.4879345461    0.4677404291   -0.3353908656         -0.4865
H1016      H    0.4886655177    0.4447531176   -0.3277708211         -0.4871
H1017      H    0.5135920584    0.4538581885   -0.3719057259         -0.5066
H1018      H    0.5017158520    0.5346202448   -0.3398367454         -0.4996
H1019      H    0.4772770207    0.5121072843   -0.3819313279         -0.4761
H1020      H    0.5402320347    0.5220434449   -0.3517377895           0.468
H1021      H    0.5365966926    0.4729921903   -0.3274083959           0.471
H1022      H    0.5244130303    0.4161651509   -0.2604985682          0.4795
H1023      H    0.5346855730    0.4307288396   -0.2980016112          0.4722
H1024      H    0.4942587573    0.4233181430   -0.2884887941         -0.4933
C955       C    0.5000000000    0.5000000000    0.1218506375          0.4922
C956       C    0.4730282335    0.4982290150    0.1384903236         -0.5056
C957       C    0.4728269194    0.5004728706    0.1700910376          -0.506
C958       C    0.4993917512    0.5047403136    0.1879203018          0.4913
C959       C    0.5264052665    0.5063137587    0.1702840524          0.4892
C960       C    0.5267552388    0.5040338286    0.1384595971          0.4896
C961       C    0.4982582623    0.5071650463    0.2207056672          0.4907
H962       H    0.4492567341    0.4977672242    0.1798742577         -0.5033
H963       H    0.4503143271    0.4947098293    0.1265790590         -0.5032
H964       H    0.5494360806    0.5058104116    0.1261442974          0.4876
H965       H    0.5495223373    0.5102485596    0.1806348783          0.4864
C966       C    0.4699424173    0.5095629381    0.2357142210          0.4893
C967       C    0.4660804375    0.5117599623    0.2671732230          0.4889
C968       C    0.4913893779    0.5119902869    0.2866387651          0.4897
C969       C    0.5201202611    0.5100031297    0.2729853430          0.4909
C970       C    0.5237356822    0.5075500506    0.2407952950          0.4915
C971       C    0.4861293833    0.5144108306    0.3231171159          0.4893
C972       C    0.4319319286    0.5148541969    0.2793012751          0.4867
H973       H    0.4478666822    0.5105175107    0.2228109792          0.4878
C974       C    0.5500799357    0.5055152547    0.2381069936         -0.5068
H975       H    0.5402482785    0.5104145751    0.2896434618          0.4914
N976       N    0.5750864243    0.4951958748    0.2347895422          -0.498
C977       C    0.5137886525    0.5161926525    0.3476168218          0.4891
C978       C    0.5000000000    0.5000000000    0.3781493625         -0.4956
N979       N    0.4668592648    0.4922131018    0.3695841633         -0.4894
N980       N    0.4680976117    0.4870195257    0.3353908656         -0.4865
H981       H    0.4450988039    0.4870946845    0.3277708211         -0.4871
H982       H    0.4534893566    0.5122707321    0.3719057259         -0.5066
H983       H    0.5345572357    0.5027023993    0.3398367454         -0.4996
H984       H    0.5127503384    0.4776315179    0.3819313279         -0.4761
H985       H    0.5208872072    0.5408442731    0.3517377895           0.468
H986       H    0.4719595675    0.5358116439    0.3274083959           0.471
H987       H    0.4155030725    0.5220124333    0.2604985682          0.4795
H988       H    0.4297679025    0.5326961025    0.2980016112          0.4722
H989       H    0.4235130472    0.4920744009    0.2884887941         -0.4933
C920       C    0.5000000000    0.6218506375    0.5000000000          0.4922
C921       C    0.4774741043    0.6384903236    0.5149397657         -0.5056
C922       C    0.4761843797    0.6700910376    0.5130925988          -0.506
C923       C    0.4971165901    0.6879203018    0.4961886370          0.4913
C924       C    0.5197768775    0.6702840524    0.4813995494          0.4892
C925       C    0.5212135331    0.6384595971    0.4832041496          0.4896
C926       C    0.4949280476    0.7207056672    0.4946477260          0.4907
H927       H    0.4570748118    0.6798742577    0.5271531312         -0.5033
H928       H    0.4595118774    0.6265790590    0.5292807773         -0.5032
H929       H    0.5400130078    0.6261442974    0.4703917890          0.4876
H930       H    0.5378824391    0.6806348783    0.4664975273          0.4864
C931       C    0.4691641539    0.7357142210    0.5066376697          0.4893
C932       C    0.4647209968    0.7671732230    0.5066502151          0.4889
C933       C    0.4865694927    0.7866387651    0.4938737234          0.4897
C934       C    0.5124894501    0.7729853430    0.4813211042          0.4909
C935       C    0.5168458850    0.7407952950    0.4816532827          0.4915
C936       C    0.4808020742    0.8231171159    0.4943870068          0.4893
C937       C    0.4335495222    0.7793012751    0.5209342667          0.4867
H938       H    0.4495326109    0.7228109792    0.5167792576          0.4878
C939       C    0.5407184120    0.7381069936    0.4703279775         -0.5068
H940       H    0.5297519683    0.7896434618    0.4709619615          0.4914
N941       N    0.5675468423    0.7347895422    0.4668567529          -0.498
C942       C    0.5039191956    0.8476168218    0.4790962003          0.4891
C943       C    0.5000000000    0.8781493625    0.5000000000         -0.4956
N944       N    0.4751101606    0.8695841633    0.5232258478         -0.4894
N945       N    0.4787656028    0.8353908656    0.5271174385         -0.4865
H946       H    0.4587700244    0.8277708211    0.5384808734         -0.4871
H947       H    0.4535407170    0.8719057259    0.5124637811         -0.5066
H948       H    0.5286456792    0.8398367454    0.4804825575         -0.4996
H949       H    0.5221801020    0.8819313279    0.5130752895         -0.4761
H950       H    0.4978293002    0.8517377895    0.4541762274           0.468
H951       H    0.4578710158    0.8274083959    0.4828568269           0.471
H952       H    0.4157355588    0.7604985682    0.5228862824          0.4795
H953       H    0.4228055238    0.7980016112    0.5065265221          0.4722
H954       H    0.4375634915    0.7884887941    0.5448859830         -0.4933
C885       C    0.5000000000    1.1218506375    0.5000000000          0.4922
C886       C    0.4729906345    1.1384903236    0.4989479775         -0.5056
C887       C    0.4730244687    1.1700910376    0.4966953633          -0.506
C888       C    0.4998895175    1.1879203018    0.4952220995          0.4913
C889       C    0.5269197993    1.1702840524    0.4964749390          0.4892
C890       C    0.5270300496    1.1384595971    0.4987789369          0.4896
C891       C    0.4990151285    1.2207056672    0.4926923624          0.4907
H892       H    0.4493006374    1.1798742577    0.4969277130         -0.5033
H893       H    0.4500335533    1.1265790590    0.5000787447         -0.5032
H894       H    0.5497724807    1.1261442974    0.4993778180          0.4876
H895       H    0.5503211973    1.1806348783    0.4949728767          0.4864
C896       C    0.4711038597    1.2357142210    0.4873540069          0.4893
C897       C    0.4674921118    1.2671732230    0.4847661353          0.4889
C898       C    0.4926870199    1.2866387651    0.4871769694          0.4897
C899       C    0.5210539053    1.2729853430    0.4921501222          0.4909
C900       C    0.5243937313    1.2407952950    0.4949669343          0.4915
C901       C    0.4877081977    1.3231171159    0.4842209746          0.4893
C902       C    0.4338526290    1.2793012751    0.4781268471          0.4867
H903       H    0.4492481135    1.2228109792    0.4841019853          0.4878
C904       C    0.5503820367    1.2381069936    0.4997385235         -0.5068
H905       H    0.5411150438    1.2896434618    0.4938404165          0.4914
N906       N    0.5741757336    1.2347895422    0.5126099671          -0.498
C907       C    0.5154024461    1.3476168218    0.4853339307          0.4891
C908       C    0.5000000000    1.3781493625    0.5000000000         -0.4956
N909       N    0.4662278142    1.3695841633    0.5042876074         -0.4894
N910       N    0.4669176791    1.3353908656    0.5095820217         -0.4865
H911       H    0.4440521663    1.3277708211    0.5071083338         -0.4871
H912       H    0.4550229904    1.3719057259    0.4829448124         -0.5066
H913       H    0.5346506101    1.3398367454    0.5009169072         -0.4996
H914       H    0.5103475953    1.3819313279    0.5235764160         -0.4761
H915       H    0.5250336183    1.3517377895    0.4615572110           0.468
H916       H    0.4758479332    1.3274083959    0.4614588873           0.471
H917       H    0.4182600450    1.2604985682    0.4692940114          0.4795
H918       H    0.4335614449    1.2980016112    0.4601565433          0.4722
H919       H    0.4231035768    1.2884887941    0.4999042331         -0.4933
C850       C    0.5000000000    0.8781493625    0.0000000000          0.4922
C851       C    0.5243576755    0.8615096764   -0.0117182004         -0.5056
C852       C    0.5234298126    0.8299089624   -0.0137711218          -0.506
C853       C    0.4981991394    0.8120796982   -0.0044268997          0.4913
C854       C    0.4739022275    0.8297159476    0.0074838437          0.4892
C855       C    0.4747183744    0.8615404029    0.0096412647          0.4896
C856       C    0.4979940873    0.7792943328   -0.0070956221          0.4907
H857       H    0.5452849103    0.8201257423   -0.0230030698         -0.5033
H858       H    0.5458670938    0.8734209410   -0.0198207390         -0.5032
H859       H    0.4540944801    0.8738557026    0.0192450044          0.4876
H860       H    0.4518374012    0.8193651217    0.0154226763          0.4864
C861       C    0.5214726028    0.7642857790   -0.0231048782          0.4893
C862       C    0.5237554685    0.7328267770   -0.0269167447          0.4889
C863       C    0.5016032292    0.7133612349   -0.0146744488          0.4897
C864       C    0.4775613658    0.7270146570    0.0011811888          0.4909
C865       C    0.4756190897    0.7592047050    0.0050948100          0.4915
C866       C    0.5049935942    0.6768828841   -0.0193682747          0.4893
C867       C    0.5519707132    0.7206987249   -0.0463999406          0.4867
H868       H    0.5402268280    0.7771890208   -0.0347894116          0.4878
C869       C    0.4536789223    0.7618930064    0.0198185711         -0.5068
H870       H    0.4598316236    0.7103565382    0.0107186210          0.4914
N871       N    0.4369767042    0.7652104578    0.0410988432          -0.498
C872       C    0.4800319141    0.6523831782   -0.0073215079          0.4891
C873       C    0.5000000000    0.6218506375    0.0000000000         -0.4956
N874       N    0.5326872655    0.6304158367   -0.0095124543         -0.4894
N875       N    0.5341622788    0.6646091344   -0.0043810732         -0.4865
H876       H    0.5541526691    0.6722291789   -0.0157536324         -0.4871
H877       H    0.5344686562    0.6280942741   -0.0335517892         -0.5066
H878       H    0.4685789851    0.6601632546    0.0146364382         -0.4996
H879       H    0.4998942351    0.6180686721    0.0257470180         -0.4761
H880       H    0.4617308006    0.6482622105   -0.0252981907           0.468
H881       H    0.5068111825    0.6725916041   -0.0449705180           0.471
H882       H    0.5627576781    0.7395014318   -0.0607103930          0.4795
H883       H    0.5450833684    0.7019983888   -0.0630005757          0.4722
H884       H    0.5705013038    0.7115112059   -0.0307023651         -0.4933
C815       C    0.5000000000    1.3781493625    0.0000000000          0.4922
C816       C    0.4823988878    1.3615096764    0.0205137375         -0.5056
C817       C    0.4840730909    1.3299089624    0.0220212053          -0.506
C818       C    0.5034270963    1.3120796982    0.0033309985          0.4913
C819       C    0.5208952352    1.3297159476   -0.0173346702          0.4892
C820       C    0.5192813762    1.3615404029   -0.0189827055          0.4896
C821       C    0.5046866436    1.2792943328    0.0056927068          0.4907
H822       H    0.4677654005    1.3201257423    0.0392529606         -0.5033
H823       H    0.4659542056    1.3734209410    0.0365723376         -0.5032
H824       H    0.5343122003    1.3738557026   -0.0360605028          0.4876
H825       H    0.5379143128    1.3193651217   -0.0334663974          0.4864
C826       C    0.4896139652    1.2642857790    0.0297831890          0.4893
C827       C    0.4890541250    1.2328267770    0.0341909528          0.4889
C828       C    0.5044249883    1.2133612349    0.0140829425          0.4897
C829       C    0.5200752826    1.2270146570   -0.0100930938          0.4893
C830       C    0.5202823409    1.2592047050   -0.0144572654          0.4915
C831       C    0.5032050776    1.1768828841    0.0197431893          0.4893
C832       C    0.4710386092    1.2206987249    0.0633651904          0.4867
H833       H    0.4771310585    1.2771890208    0.0480157512          0.4878
C834       C    0.5344624305    1.2618930064   -0.0367526718         -0.5068
H835       H    0.5324822265    1.2103565382   -0.0259478758          0.4914
N836       N    0.5412124342    1.2652104578   -0.0629490746          -0.498
C837       C    0.5212273946    1.1523831782   -0.0013140222          0.4891
C838       C    0.5000000000    1.1218506375    0.0000000000         -0.4956
N839       N    0.4738846943    1.1304158367    0.0218388397         -0.4894
N840       N    0.4704730946    1.1646091344    0.0177318063         -0.4865
H841       H    0.4567328003    1.1722291789    0.0361751009         -0.4871
H842       H    0.4819074526    1.1280942741    0.0445698389         -0.5066
H843       H    0.5228978647    1.1601632546   -0.0260229377         -0.4996
H844       H    0.4897568732    1.1180686721   -0.0236219913         -0.4761
H845       H    0.5452072622    1.1482622105    0.0077995844           0.468
H846       H    0.5118223487    1.1725916041    0.0439200611           0.471
H847       H    0.4669068100    1.2395014318    0.0808029625          0.4795
H848       H    0.4840129515    1.2019983888    0.0758023543          0.4722
H849       H    0.4477638710    1.2115112059    0.0564309834         -0.4933
C780       C    0.5000000000    1.0000000000   -0.1218506375          0.4922
C781       C    0.5010011268    1.0270112999   -0.1384903236         -0.5056
C782       C    0.4987524430    1.0271485454   -0.1700910376          -0.506
C783       C    0.4952442691    1.0004728247   -0.1879203018          0.4913
C784       C    0.4944417924    0.9734254262   -0.1702840524          0.4892
C785       C    0.4967307751    0.9731406116   -0.1384595971          0.4896
C786       C    0.4927881994    1.0015367080   -0.2207056672          0.4907
H787       H    0.5007848521    1.0507863006   -0.1798742577         -0.5033
H788       H    0.5038711624    1.0498163236   -0.1265790590         -0.5032
H789       H    0.4956016908    0.9504183318   -0.1261442974          0.4876
H790       H    0.4911678074    0.9502055501   -0.1806348783          0.4864
C791       C    0.4895838166    1.0297726584   -0.2357142210          0.4893
C792       C    0.4872775561    1.0335704163   -0.2671732230          0.4889
C793       C    0.4877690453    1.0082652004   -0.2866387651          0.4897
C794       C    0.4905746959    0.9796026680   -0.2729853430          0.4909
C795       C    0.4931298762    0.9760586702   -0.2407952950          0.4915
C796       C    0.4851994898    1.0134540308   -0.3231171159          0.4893
C797       C    0.4832107870    1.0676168015   -0.2793012751          0.4867
H798       H    0.4880001116    1.0518121948   -0.2228109792          0.4878
C799       C    0.4959150881    0.9497831553   -0.2381069936         -0.5068
H800       H    0.4907373966    0.9594711032   -0.2896434618          0.4914
N801       N    0.5069433666    0.9250811079   -0.2347895422          -0.498
C802       C    0.4842071355    0.9857551987   -0.3476168218          0.4891
C803       C    0.5000000000    1.0000000000   -0.3781493625         -0.4956
N804       N    0.5068386767    1.0333493120   -0.3695841633         -0.4894
N805       N    0.5120654539    1.0322595709   -0.3353908656         -0.4865
H806       H    0.5113344823    1.0552468824   -0.3277708211         -0.4871
H807       H    0.4864079416    1.0461418115   -0.3719057259         -0.5066
H808       H    0.4982841480    0.9653797552   -0.3398367454         -0.4996
H809       H    0.5227229793    0.9878927157   -0.3819313279         -0.4761
H810       H    0.4597679653    0.9779565551   -0.3517377895           0.468
H811       H    0.4634033074    1.0270078097   -0.3274083959           0.471
H812       H    0.4755869697    1.0838348491   -0.2604985682          0.4795
H813       H    0.4653144270    1.0692711604   -0.2980016112          0.4722
H814       H    0.5057412427    1.0766818570   -0.2884887941         -0.4933
C745       C    0.5000000000    1.0000000000    0.1218506375          0.4922
C746       C    0.5269717665    1.0017709850    0.1384903236         -0.5056
C747       C    0.5271730806    0.9995271294    0.1700910376          -0.506
C748       C    0.5006082488    0.9952596864    0.1879203018          0.4913
C749       C    0.4735947335    0.9936862413    0.1702840524          0.4892
C750       C    0.4732447612    0.9959661714    0.1384595971          0.4896
C751       C    0.5017417377    0.9928349537    0.2207056672          0.4907
H752       H    0.5507432659    1.0022327758    0.1798742577         -0.5033
H753       H    0.5496856729    1.0052901707    0.1265790590         -0.5032
H754       H    0.4505639194    0.9941895884    0.1261442974          0.4876
H755       H    0.4504776627    0.9897514404    0.1806348783          0.4864
C756       C    0.5300575827    0.9904370619    0.2357142210          0.4893
C757       C    0.5339195625    0.9882400377    0.2671732230          0.4889
C758       C    0.5086106221    0.9880097131    0.2866387651          0.4897
C759       C    0.4798797389    0.9899968703    0.2729853430          0.4909
C760       C    0.4762643178    0.9924499494    0.2407952950          0.4915
C761       C    0.5138706167    0.9855891694    0.3231171159          0.4893
C762       C    0.5680680714    0.9851458031    0.2793012751          0.4867
H763       H    0.5521333178    0.9894824893    0.2228109792          0.4878
C764       C    0.4499200643    0.9944847453    0.2381069936         -0.5068
H765       H    0.4597517215    0.9895854249    0.2896434618          0.4914
N766       N    0.4249135757    1.0048041252    0.2347895422          -0.498
C767       C    0.4862113475    0.9838073475    0.3476168218          0.4891
C768       C    0.5000000000    1.0000000000    0.3781493625         -0.4956
N769       N    0.5331407352    1.0077868982    0.3695841633         -0.4894
N770       N    0.5319023883    1.0129804743    0.3353908656         -0.4865
H771       H    0.5549011961    1.0129053155    0.3277708211         -0.4871
H772       H    0.5465106434    0.9877292679    0.3719057259         -0.5066
H773       H    0.4654427643    0.9972976007    0.3398367454         -0.4996
H774       H    0.4872496616    1.0223684821    0.3819313279         -0.4761
H775       H    0.4791127928    0.9591557269    0.3517377895           0.468
H776       H    0.5280404325    0.9641883561    0.3274083959           0.471
H777       H    0.5844969275    0.9779875667    0.2604985682          0.4795
H778       H    0.5702320975    0.9673038975    0.2980016112          0.4722
H779       H    0.5764869528    1.0079255991    0.2884887941         -0.4933
C710       C    0.6218506375    0.5000000000    0.5000000000          0.4922
C711       C    0.6384903236    0.5088098154    0.4744461406         -0.5056
C712       C    0.6700910376    0.5066981319    0.4736611514          -0.506
C713       C    0.6879203018    0.4955870802    0.4981651488          0.4913
C714       C    0.6702840524    0.4869568432    0.5238112937          0.4892
C715       C    0.6384595971    0.4890641885    0.5247491940          0.4896
C716       C    0.7207056672    0.4935463309    0.4964332517          0.4907
H717       H    0.6798742577    0.5155140396    0.4516349414         -0.5033
H718       H    0.6265790590    0.5181851116    0.4534601922         -0.5032
H719       H    0.6261442974    0.4813787172    0.5461620491          0.4876
H720       H    0.6806348783    0.4770744477    0.5450767558          0.4864
C721       C    0.7357142210    0.4986882361    0.4684851251          0.4893
C722       C    0.7671732230    0.4975855373    0.4641809576          0.4889
C723       C    0.7866387651    0.4906998245    0.4885362952          0.4897
C724       C    0.7729853430    0.4850524022    0.5167766752          0.4909
C725       C    0.7407952950    0.4864670374    0.5209103993          0.4915
C726       C    0.8231171159    0.4897495716    0.4828245884          0.4893
C727       C    0.7793012751    0.5035913329    0.4304226198          0.4867
H728       H    0.7228109792    0.5035795969    0.4469369494          0.4878
C729       C    0.7381069936    0.4814939416    0.5468608984         -0.5068
H730       H    0.7896434618    0.4793560286    0.5360861988          0.4914
N731       N    0.7347895422    0.4848653456    0.5737020554          -0.498
C732       C    0.8476168218    0.4807482911    0.5090388405          0.4891
C733       C    0.8781493625    0.5000000000    0.5000000000         -0.4956
N734       N    0.8695841633    0.5162376817    0.4700787399         -0.4894
N735       N    0.8353908656    0.5209219751    0.4726407959         -0.4865
H736       H    0.8277708211    0.5269047549    0.4504336539         -0.4871
H737       H    0.8719057259    0.5004078565    0.4518996417         -0.5066
H738       H    0.8398367454    0.4882944775    0.5326264654         -0.4996
H739       H    0.8819313279    0.5182222693    0.5181898055         -0.4761
H740       H    0.8517377895    0.4550974828    0.5093964899           0.468
H741       H    0.8274083959    0.4728345594    0.4635201627           0.471
H742       H    0.7604985682    0.5010111605    0.4126887434          0.4795
H743       H    0.7980016112    0.4869486932    0.4236374042          0.4722
H744       H    0.7884887941    0.5277839838    0.4282984009         -0.4933
C675       C    1.1218506375    0.5000000000    0.5000000000          0.4922
C676       C    1.1384903236    0.5088098154    0.4744461406         -0.5056
C677       C    1.1700910376    0.5066981319    0.4736611514          -0.506
C678       C    1.1879203018    0.4955870802    0.4981651488          0.4913
C679       C    1.1702840524    0.4869568432    0.5238112937          0.4892
C680       C    1.1384595971    0.4890641885    0.5247491940          0.4896
C681       C    1.2207056672    0.4935463309    0.4964332517          0.4907
H682       H    1.1798742577    0.5155140396    0.4516349414         -0.5033
H683       H    1.1265790590    0.5181851116    0.4534601922         -0.5032
H684       H    1.1261442974    0.4813787172    0.5461620491          0.4876
H685       H    1.1806348783    0.4770744477    0.5450767558          0.4864
C686       C    1.2357142210    0.4986882361    0.4684851251          0.4893
C687       C    1.2671732230    0.4975855373    0.4641809576          0.4889
C688       C    1.2866387651    0.4906998245    0.4885362952          0.4897
C689       C    1.2729853430    0.4850524022    0.5167766752          0.4909
C690       C    1.2407952950    0.4864670374    0.5209103993          0.4915
C691       C    1.3231171159    0.4897495716    0.4828245884          0.4893
C692       C    1.2793012751    0.5035913329    0.4304226198          0.4867
H693       H    1.2228109792    0.5035795969    0.4469369494          0.4878
C694       C    1.2381069936    0.4814939416    0.5468608984         -0.5068
H695       H    1.2896434618    0.4793560286    0.5360861988          0.4914
N696       N    1.2347895422    0.4848653456    0.5737020554          -0.498
C697       C    1.3476168218    0.4807482911    0.5090388405          0.4891
C698       C    1.3781493625    0.5000000000    0.5000000000         -0.4956
N699       N    1.3695841633    0.5162376817    0.4700787399         -0.4894
N700       N    1.3353908656    0.5209219751    0.4726407959         -0.4865
H701       H    1.3277708211    0.5269047549    0.4504336539         -0.4871
H702       H    1.3719057259    0.5004078565    0.4518996417         -0.5066
H703       H    1.3398367454    0.4882944775    0.5326264654         -0.4996
H704       H    1.3819313279    0.5182222693    0.5181898055         -0.4761
H705       H    1.3517377895    0.4550974828    0.5093964899           0.468
H706       H    1.3274083959    0.4728345594    0.4635201627           0.471
H707       H    1.2604985682    0.5010111605    0.4126887434          0.4795
H708       H    1.2980016112    0.4869486932    0.4236374042          0.4722
H709       H    1.2884887941    0.5277839838    0.4282984009         -0.4933
C640       C    0.6218506375    0.5000000000    0.0000000000          0.4922
C641       C    0.6384903236    0.4888361275   -0.0246166717         -0.5056
C642       C    0.6700910376    0.4867627303   -0.0237355136          -0.506
C643       C    0.6879203018    0.4955334727    0.0017001982          0.4913
C644       C    0.6702840524    0.5068912142    0.0262604801          0.4892
C645       C    0.6384595971    0.5090665557    0.0254933745          0.4896
C646       C    0.7207056672    0.4928607928    0.0018447923          0.4907
H647       H    0.6798742577    0.4780278285   -0.0457939734         -0.5033
H648       H    0.6265790590    0.4812225214   -0.0463039770         -0.5032
H649       H    0.6261442974    0.5182010218    0.0463293617          0.4876
H650       H    0.6806348783    0.5143285849    0.0484993456          0.4864
C651       C    0.7357142210    0.4773870645   -0.0219900708          0.4893
C652       C    0.7671732230    0.4736278463   -0.0243586317          0.4889
C653       C    0.7866387651    0.4853655992   -0.0019349685          0.4897
C654       C    0.7729853430    0.5006729971    0.0224596212          0.4909
C655       C    0.7407952950    0.5045416530    0.0244899829          0.4915
C656       C    0.8231171159    0.4807497153   -0.0054307076          0.4893
C657       C    0.7793012751    0.4547882822   -0.0530076418          0.4867
H658       H    0.7228109792    0.4661300187   -0.0410039659          0.4878
C659       C    0.7381069936    0.5187650355    0.0467577955         -0.5068
H660       H    0.7896434618    0.5098066806    0.0404006969          0.4914
N661       N    0.7347895422    0.5396618079    0.0639374047          -0.498
C662       C    0.8476168218    0.4922283986    0.0197972510          0.4891
C663       C    0.8781493625    0.5000000000    0.0000000000         -0.4956
N664       N    0.8695841633    0.4912298454   -0.0328942016         -0.4894
N665       N    0.8353908656    0.4963932981   -0.0342526903         -0.4865
H666       H    0.8277708211    0.4854761266   -0.0544953723         -0.4871
H667       H    0.8719057259    0.4672369902   -0.0352192562         -0.5066
H668       H    0.8398367454    0.5139214869    0.0317442546         -0.4996
H669       H    0.8819313279    0.5257380278    0.0006885107         -0.4761
H670       H    0.8517377895    0.4738420832    0.0376867810           0.468
H671       H    0.8274083959    0.4551951715   -0.0078273263           0.471
H672       H    0.7604985682    0.4407256545   -0.0641157542          0.4795
H673       H    0.7980016112    0.4380360079   -0.0464978099          0.4722
H674       H    0.7884887941    0.4709012682   -0.0711781769         -0.4933
C605       C    1.1218506375    0.5000000000    0.0000000000          0.4922
C606       C    1.1384903236    0.5177408224   -0.0203930331         -0.5056
C607       C    1.1700910376    0.5160769552   -0.0219119015          -0.506
C608       C    1.1879203018    0.4965957363   -0.0033543298          0.4913
C609       C    1.1702840524    0.4789868463    0.0171915392          0.4892
C610       C    1.1384595971    0.4805894107    0.0188505597          0.4896
C611       C    1.2207056672    0.4953523502   -0.0057245865          0.4907
H612       H    1.1798742577    0.5325019681   -0.0390318638         -0.5033
H613       H    1.1265790590    0.5342948105   -0.0363389318         -0.5032
H614       H    1.1261442974    0.4654422860    0.0358252893          0.4876
H615       H    1.1806348783    0.4618579768    0.0332066398          0.4864
C616       C    1.2357142210    0.5105892290   -0.0297115515          0.4893
C617       C    1.2671732230    0.5111791637   -0.0341153885          0.4889
C618       C    1.2866387651    0.4956713096   -0.0141128392          0.4897
C619       C    1.2729853430    0.4798562441    0.0099557324          0.4909
C620       C    1.2407952950    0.4796193807    0.0143183879          0.4915
C621       C    1.3231171159    0.4969298546   -0.0197646213          0.4893
C622       C    1.2793012751    0.5293935363   -0.0631658890          0.4867
H623       H    1.2228109792    0.5231963835   -0.0478584229          0.4878
C624       C    1.2381069936    0.4652873314    0.0365164159         -0.5068
H625       H    1.2896434618    0.4673412922    0.0257253980          0.4914
N626       N    1.2347895422    0.4583585484    0.0626661012          -0.498
C627       C    1.3476168218    0.4787641251    0.0011689961          0.4891
C628       C    1.3781493625    0.5000000000    0.0000000000         -0.4956
N629       N    1.3695841633    0.5262638684   -0.0216599475         -0.4894
N630       N    1.3353908656    0.5296473351   -0.0175297067         -0.4865
H631       H    1.3277708211    0.5435132874   -0.0358787169         -0.4871
H632       H    1.3719057259    0.5183965632   -0.0444452166         -0.5066
H633       H    1.3398367454    0.4769249176    0.0258659249         -0.4996
H634       H    1.3819313279    0.5100815359    0.0236914068         -0.4761
H635       H    1.3517377895    0.4548470681   -0.0081081943           0.468
H636       H    1.3274083959    0.4884779267   -0.0439997900           0.471
H637       H    1.2604985682    0.5336443493   -0.0805750317          0.4795
H638       H    1.2980016112    0.5165044497   -0.0756913851          0.4722
H639       H    1.2884887941    0.5526203669   -0.0560728638         -0.4933
C570       C    1.0000000000    0.5000000000   -0.1218506375          0.4922
C571       C    1.0269717665    0.4982290150   -0.1384903236         -0.5056
C572       C    1.0271730806    0.5004728706   -0.1700910376          -0.506
C573       C    1.0006082488    0.5047403136   -0.1879203018          0.4913
C574       C    0.9735947335    0.5063137587   -0.1702840524          0.4892
C575       C    0.9732447612    0.5040338286   -0.1384595971          0.4896
C576       C    1.0017417377    0.5071650463   -0.2207056672          0.4907
H577       H    1.0507432659    0.4977672242   -0.1798742577         -0.5033
H578       H    1.0496856729    0.4947098293   -0.1265790590         -0.5032
H579       H    0.9505639194    0.5058104116   -0.1261442974          0.4876
H580       H    0.9504776627    0.5102485596   -0.1806348783          0.4864
C581       C    1.0300575827    0.5095629381   -0.2357142210          0.4893
C582       C    1.0339195625    0.5117599623   -0.2671732230          0.4889
C583       C    1.0086106221    0.5119902869   -0.2866387651          0.4897
C584       C    0.9798797389    0.5100031297   -0.2729853430          0.4909
C585       C    0.9762643178    0.5075500506   -0.2407952950          0.4915
C586       C    1.0138706167    0.5144108306   -0.3231171159          0.4893
C587       C    1.0680680714    0.5148541969   -0.2793012751          0.4867
H588       H    1.0521333178    0.5105175107   -0.2228109792          0.4878
C589       C    0.9499200643    0.5055152547   -0.2381069936         -0.5068
H590       H    0.9597517215    0.5104145751   -0.2896434618          0.4914
N591       N    0.9249135757    0.4951958748   -0.2347895422          -0.498
C592       C    0.9862113475    0.5161926525   -0.3476168218          0.4891
C593       C    1.0000000000    0.5000000000   -0.3781493625         -0.4956
N594       N    1.0331407352    0.4922131018   -0.3695841633         -0.4894
N595       N    1.0319023883    0.4870195257   -0.3353908656         -0.4865
H596       H    1.0549011961    0.4870946845   -0.3277708211         -0.4871
H597       H    1.0465106434    0.5122707321   -0.3719057259         -0.5066
H598       H    0.9654427643    0.5027023993   -0.3398367454         -0.4996
H599       H    0.9872496616    0.4776315179   -0.3819313279         -0.4761
H600       H    0.9791127928    0.5408442731   -0.3517377895           0.468
H601       H    1.0280404325    0.5358116439   -0.3274083959           0.471
H602       H    1.0844969275    0.5220124333   -0.2604985682          0.4795
H603       H    1.0702320975    0.5326961025   -0.2980016112          0.4722
H604       H    1.0764869528    0.4920744009   -0.2884887941         -0.4933
C535       C    1.0000000000    0.5000000000    0.3781493625          0.4922
C536       C    1.0269717665    0.4982290150    0.3615096764         -0.5056
C537       C    1.0271730806    0.5004728706    0.3299089624          -0.506
C538       C    1.0006082488    0.5047403136    0.3120796982          0.4913
C539       C    0.9735947335    0.5063137587    0.3297159476          0.4892
C540       C    0.9732447612    0.5040338286    0.3615404029          0.4896
C541       C    1.0017417377    0.5071650463    0.2792943328          0.4907
H542       H    1.0507432659    0.4977672242    0.3201257423         -0.5033
H543       H    1.0496856729    0.4947098293    0.3734209410         -0.5032
H544       H    0.9505639194    0.5058104116    0.3738557026          0.4876
H545       H    0.9504776627    0.5102485596    0.3193651217          0.4864
C546       C    1.0300575827    0.5095629381    0.2642857790          0.4893
C547       C    1.0339195625    0.5117599623    0.2328267770          0.4889
C548       C    1.0086106221    0.5119902869    0.2133612349          0.4897
C549       C    0.9798797389    0.5100031297    0.2270146570          0.4909
C550       C    0.9762643178    0.5075500506    0.2592047050          0.4915
C551       C    1.0138706167    0.5144108306    0.1768828841          0.4893
C552       C    1.0680680714    0.5148541969    0.2206987249          0.4867
H553       H    1.0521333178    0.5105175107    0.2771890208          0.4878
C554       C    0.9499200643    0.5055152547    0.2618930064         -0.5068
H555       H    0.9597517215    0.5104145751    0.2103565382          0.4914
N556       N    0.9249135757    0.4951958748    0.2652104578          -0.498
C557       C    0.9862113475    0.5161926525    0.1523831782          0.4891
C558       C    1.0000000000    0.5000000000    0.1218506375         -0.4956
N559       N    1.0331407352    0.4922131018    0.1304158367         -0.4894
N560       N    1.0319023883    0.4870195257    0.1646091344         -0.4865
H561       H    1.0549011961    0.4870946845    0.1722291789         -0.4871
H562       H    1.0465106434    0.5122707321    0.1280942741         -0.5066
H563       H    0.9654427643    0.5027023993    0.1601632546         -0.4996
H564       H    0.9872496616    0.4776315179    0.1180686721         -0.4761
H565       H    0.9791127928    0.5408442731    0.1482622105           0.468
H566       H    1.0280404325    0.5358116439    0.1725916041           0.471
H567       H    1.0844969275    0.5220124333    0.2395014318          0.4795
H568       H    1.0702320975    0.5326961025    0.2019983888          0.4722
H569       H    1.0764869528    0.4920744009    0.2115112059         -0.4933
C500       C    1.0000000000   -0.1218506375    0.5000000000          0.4922
C501       C    1.0269717665   -0.1384903236    0.5017709850         -0.5056
C502       C    1.0271730806   -0.1700910376    0.4995271294          -0.506
C503       C    1.0006082488   -0.1879203018    0.4952596864          0.4913
C504       C    0.9735947335   -0.1702840524    0.4936862413          0.4892
C505       C    0.9732447612   -0.1384595971    0.4959661714          0.4896
C506       C    1.0017417377   -0.2207056672    0.4928349537          0.4907
H507       H    1.0507432659   -0.1798742577    0.5022327758         -0.5033
H508       H    1.0496856729   -0.1265790590    0.5052901707         -0.5032
H509       H    0.9505639194   -0.1261442974    0.4941895884          0.4876
H510       H    0.9504776627   -0.1806348783    0.4897514404          0.4864
C511       C    1.0300575827   -0.2357142210    0.4904370619          0.4893
C512       C    1.0339195625   -0.2671732230    0.4882400377          0.4889
C513       C    1.0086106221   -0.2866387651    0.4880097131          0.4897
C514       C    0.9798797389   -0.2729853430    0.4899968703          0.4909
C515       C    0.9762643178   -0.2407952950    0.4924499494          0.4915
C516       C    1.0138706167   -0.3231171159    0.4855891694          0.4893
C517       C    1.0680680714   -0.2793012751    0.4851458031          0.4867
H518       H    1.0521333178   -0.2228109792    0.4894824893          0.4878
C519       C    0.9499200643   -0.2381069936    0.4944847453         -0.5068
H520       H    0.9597517215   -0.2896434618    0.4895854249          0.4914
N521       N    0.9249135757   -0.2347895422    0.5048041252          -0.498
C522       C    0.9862113475   -0.3476168218    0.4838073475          0.4891
C523       C    1.0000000000   -0.3781493625    0.5000000000         -0.4956
N524       N    1.0331407352   -0.3695841633    0.5077868982         -0.4894
N525       N    1.0319023883   -0.3353908656    0.5129804743         -0.4865
H526       H    1.0549011961   -0.3277708211    0.5129053155         -0.4871
H527       H    1.0465106434   -0.3719057259    0.4877292679         -0.5066
H528       H    0.9654427643   -0.3398367454    0.4972976007         -0.4996
H529       H    0.9872496616   -0.3819313279    0.5223684821         -0.4761
H530       H    0.9791127928   -0.3517377895    0.4591557269           0.468
H531       H    1.0280404325   -0.3274083959    0.4641883561           0.471
H532       H    1.0844969275   -0.2604985682    0.4779875667          0.4795
H533       H    1.0702320975   -0.2980016112    0.4673038975          0.4722
H534       H    1.0764869528   -0.2884887941    0.5079255991         -0.4933
C465       C    1.0000000000    0.1218506375    0.5000000000          0.4922
C466       C    0.9769858392    0.1384903236    0.4858239293         -0.5056
C467       C    0.9781211780    0.1700910376    0.4838780565          -0.506
C468       C    1.0022493335    0.1879203018    0.4957832431          0.4913
C469       C    1.0251831307    0.1702840524    0.5101445344          0.4892
C470       C    1.0241480931    0.1384595971    0.5122059074          0.4896
C471       C    1.0027294724    0.2207056672    0.4931500716          0.4907
H472       H    0.9573388533    0.1798742577    0.4724338816         -0.5033
H473       H    0.9564304544    0.1265790590    0.4755388740         -0.5032
H474       H    1.0436673485    0.1261442974    0.5238924596          0.4876
H475       H    1.0463078831    0.1806348783    0.5203242423          0.4864
C476       C    0.9810338351    0.2357142210    0.4747969713          0.4893
C477       C    0.9791577200    0.2671732230    0.4707693176          0.4889
C478       C    0.9999240478    0.2866387651    0.4852384275          0.4897
C479       C    1.0221959063    0.2729853430    0.5034970354          0.4909
C480       C    1.0237227299    0.2407952950    0.5075906496          0.4915
C481       C    0.9970376549    0.3231171159    0.4802189344          0.4893
C482       C    0.9531103080    0.2793012751    0.4484707238          0.4867
H483       H    0.9635895522    0.2228109792    0.4612342917          0.4878
C484       C    1.0440213161    0.2381069936    0.5245059528         -0.5068
H485       H    1.0388434121    0.2896434618    0.5148181185          0.4914
N486       N    1.0584315410    0.2347895422    0.5474004825          -0.498
C487       C    1.0206185735    0.3476168218    0.4947843159          0.4891
C488       C    1.0000000000    0.3781493625    0.5000000000         -0.4956
N489       N    0.9684727014    0.3695841633    0.4871557968         -0.4894
N490       N    0.9664745583    0.3353908656    0.4921069745         -0.4865
H491       H    0.9477684616    0.3277708211    0.4787266623         -0.4871
H492       H    0.9691887227    0.3719057259    0.4630611856         -0.5066
H493       H    1.0297375627    0.3398367454    0.5178096284         -0.4996
H494       H    0.9974406210    0.3819313279    0.5256197131         -0.4761
H495       H    1.0406818365    0.3517377895    0.4787981546           0.468
H496       H    0.9978794194    0.3274083959    0.4545660608           0.471
H497       H    0.9438622627    0.2604985682    0.4331207624          0.4795
H498       H    0.9616786815    0.2980016112    0.4326720030          0.4722
H499       H    0.9330546663    0.2884887941    0.4621662669         -0.4933
C430       C    0.8781493625   -0.0000000000    0.5000000000          0.4922
C431       C    0.8615096764    0.0026551861    0.4731008817         -0.5056
C432       C    0.8299089624    0.0049018089    0.4732685170          -0.506
C433       C    0.8120796982    0.0047760224    0.5001736380          0.4913
C434       C    0.8297159476    0.0019191311    0.5270817020          0.4892
C435       C    0.8615404029   -0.0003873467    0.5270548432          0.4896
C436       C    0.7792943328    0.0073532491    0.4994511230          0.4907
H437       H    0.8201257423    0.0060796508    0.4495728033         -0.5033
H438       H    0.8734209410    0.0028906343    0.4501171750         -0.5032
H439       H    0.8738557026   -0.0023366310    0.5497214954          0.4876
H440       H    0.8193651217    0.0020279185    0.5505310045          0.4864
C441       C    0.7642857790    0.0143407888    0.4719064092          0.4893
C442       C    0.7328267770    0.0171387141    0.4684548275          0.4889
C443       C    0.7133612349    0.0132349411    0.4934619479          0.4897
C444       C    0.7270146570    0.0065848839    0.5214831752          0.4909
C445       C    0.7592047050    0.0035745817    0.5246497108          0.4915
C446       C    0.6768828841    0.0164815769    0.4886675833          0.4893
C447       C    0.7206987249    0.0257652846    0.4352693301          0.4867
H448       H    0.7771890208    0.0188858340    0.4502825370          0.4878
C449       C    0.7618930064   -0.0027329218    0.5503085394         -0.5068
H450       H    0.7103565382    0.0037054501    0.5414084163          0.4914
N451       N    0.7652104578   -0.0169955516    0.5732953065          -0.498
C452       C    0.6523831782    0.0137248660    0.5162467531          0.4891
C453       C    0.6218506375   -0.0000000000    0.5000000000         -0.4956
N454       N    0.6304158367   -0.0022731292    0.4660327070         -0.4894
N455       N    0.6646091344   -0.0075991821    0.4664067339         -0.4865
H456       H    0.6722291789   -0.0037710900    0.4437286273         -0.4871
H457       H    0.6280942741    0.0196977918    0.4561159731         -0.5066
H458       H    0.6601632546   -0.0029743882    0.5345348883         -0.4996
H459       H    0.6180686721   -0.0241496541    0.5089282881         -0.4761
H460       H    0.6482622105    0.0368872380    0.5272738290           0.468
H461       H    0.6725916041    0.0399082313    0.4781809081           0.471
H462       H    0.7395014318    0.0355090951    0.4202291899          0.4795
H463       H    0.7019983888    0.0437211346    0.4360465401          0.4722
H464       H    0.7115112059    0.0046651426    0.4232451597         -0.4933
C395       C    1.3781493625   -0.0000000000    0.5000000000          0.4922
C396       C    1.3615096764   -0.0262901655    0.5062801095         -0.5056
C397       C    1.3299089624   -0.0268658378    0.5041020331          -0.506
C398       C    1.3120796982   -0.0013965048    0.4954294076          0.4913
C399       C    1.3297159476    0.0249680245    0.4893370080          0.4892
C400       C    1.3615404029    0.0256963039    0.4915256539          0.4896
C401       C    1.2792943328   -0.0029214927    0.4932297401          0.4907
H402       H    1.3201257423   -0.0496457052    0.5107316484         -0.5033
H403       H    1.3734209410   -0.0480891735    0.5135677331         -0.5032
H404       H    1.3738557026    0.0477556739    0.4859613903          0.4876
H405       H    1.3193651217    0.0470945884    0.4815719070          0.4864
C406       C    1.2642857790   -0.0312374535    0.4956262644          0.4893
C407       C    1.2328267770   -0.0354138183    0.4941097619          0.4889
C408       C    1.2133612349   -0.0105038064    0.4896279297          0.4897
C409       C    1.2270146570    0.0181522353    0.4867567427          0.4909
C410       C    1.2592047050    0.0221285970    0.4885671059          0.4915
C411       C    1.1768828841   -0.0160958657    0.4881261146          0.4893
C412       C    1.2206987249   -0.0695964950    0.4968004062          0.4867
H413       H    1.2771890208   -0.0531594742    0.4983965166          0.4878
C414       C    1.2618930064    0.0484399853    0.4861441053         -0.5068
H415       H    1.2103565382    0.0379246124    0.4829673528          0.4914
N416       N    1.2652104578    0.0748254024    0.4921126760          -0.498
C417       C    1.1523831782    0.0108701958    0.4817197435          0.4891
C418       C    1.1218506375   -0.0000000000    0.5000000000         -0.4956
N419       N    1.1304158367   -0.0313599759    0.5132474913         -0.4894
N420       N    1.1646091344   -0.0292661411    0.5181589669         -0.4865
H421       H    1.1722291789   -0.0519502552    0.5219512980         -0.4871
H422       H    1.1280942741   -0.0479115651    0.4957229979         -0.5066
H423       H    1.1601632546    0.0336110912    0.4915265093         -0.4996
H424       H    1.1180686721    0.0163293238    0.5199066146         -0.4761
H425       H    1.1482622105    0.0137234397    0.4562256094           0.468
H426       H    1.1725916041   -0.0336617857    0.4694120305           0.471
H427       H    1.2395014318   -0.0869949278    0.4925059687          0.4795
H428       H    1.2019983888   -0.0747291948    0.4795762372          0.4722
H429       H    1.2115112059   -0.0740659539    0.5206713217         -0.4933
C360       C   -0.0000000000   -0.3781493625    0.0000000000          0.4922
C361       C   -0.0212735016   -0.3615096764    0.0166748526         -0.5056
C362       C   -0.0227053041   -0.3299089624    0.0149354973          -0.506
C363       C   -0.0031758708   -0.3120796982   -0.0035713282          0.4913
C364       C    0.0182435207   -0.3297159476   -0.0201066059          0.4892
C365       C    0.0198184266   -0.3615404029   -0.0184213068          0.4896
C366       C   -0.0054794484   -0.2792943328   -0.0049342866          0.4907
H367       H   -0.0406427350   -0.3201257423    0.0304636244         -0.5033
H368       H   -0.0380449997   -0.3734209410    0.0323918198         -0.5032
H369       H    0.0375454722   -0.3738557026   -0.0326806436          0.4876
H370       H    0.0351135257   -0.3193651217   -0.0363941640          0.4864
C371       C   -0.0302141457   -0.2642857790    0.0090561285          0.4893
C372       C   -0.0346423870   -0.2328267770    0.0094201090          0.4889
C373       C   -0.0138730374   -0.2133612349   -0.0050446630          0.4897
C374       C    0.0109727244   -0.2270146570   -0.0196083357          0.4909
C375       C    0.0153417844   -0.2592047050   -0.0196218125          0.4915
C376       C   -0.0195817795   -0.1768828841   -0.0040767584          0.4893
C377       C   -0.0645862449   -0.2206987249    0.0261252078          0.4867
H378       H   -0.0489819228   -0.2771890208    0.0207188824          0.4878
C379       C    0.0382436181   -0.2618930064   -0.0328000560         -0.5068
H380       H    0.0273616908   -0.2103565382   -0.0313005619          0.4914
N381       N    0.0647133865   -0.2652104578   -0.0383826567          -0.498
C382       C    0.0022533261   -0.1523831782   -0.0211483204          0.4891
C383       C   -0.0000000000   -0.1218506375    0.0000000000         -0.4956
N384       N   -0.0229745697   -0.1304158367    0.0251219677         -0.4894
N385       N   -0.0190227395   -0.1646091344    0.0287122008         -0.4865
H386       H   -0.0380567574   -0.1722291789    0.0416217697         -0.4871
H387       H   -0.0453277511   -0.1280942741    0.0160998694         -0.5066
H388       H    0.0270119920   -0.1601632546   -0.0217222877         -0.4996
H389       H    0.0231449130   -0.1180686721    0.0112797662         -0.4761
H390       H   -0.0057887715   -0.1482622105   -0.0455084629           0.468
H391       H   -0.0433530702   -0.1725916041   -0.0137568527           0.471
H392       H   -0.0821899715   -0.2395014318    0.0294802741          0.4795
H393       H   -0.0764362948   -0.2019983888    0.0126125130          0.4722
H394       H   -0.0586901618   -0.2115112059    0.0496843434         -0.4933
C325       C    0.0000000000    0.1218506375    0.0000000000          0.4922
C326       C    0.0267921110    0.1384903236    0.0035770611         -0.5056
C327       C    0.0265474486    0.1700910376    0.0058166047          -0.506
C328       C   -0.0003374953    0.1879203018    0.0047672463          0.4913
C329       C   -0.0271316223    0.1702840524    0.0009882918          0.4892
C330       C   -0.0270255985    0.1384595971   -0.0013159045          0.4896
C331       C    0.0002961183    0.2207056672    0.0073677576          0.4907
H332       H    0.0501887600    0.1798742577    0.0078072203         -0.5033
H333       H    0.0497541873    0.1265790590    0.0046013954         -0.5032
H334       H   -0.0496119716    0.1261442974   -0.0040421803          0.4876
H335       H   -0.0505708374    0.1806348783    0.0002920064          0.4864
C336       C    0.0275847156    0.2357142210    0.0152967818          0.4893
C337       C    0.0309382108    0.2671732230    0.0182115497          0.4889
C338       C    0.0060798461    0.2866387651    0.0134515896          0.4897
C339       C   -0.0216965696    0.2729853430    0.0058434905          0.4909
C340       C   -0.0247578958    0.2407952950    0.0027262563          0.4915
C341       C    0.0107599285    0.3231171159    0.0168609011          0.4893
C342       C    0.0638079992    0.2793012751    0.0279722853          0.4867
H343       H    0.0490398116    0.2228109792    0.0205814901          0.4878
C344       C   -0.0501850650    0.2381069936   -0.0044583905         -0.5068
H345       H   -0.0415112157    0.2896434618    0.0022817253          0.4914
N346       N   -0.0726686503    0.2347895422   -0.0195017434          -0.498
C347       C   -0.0167083479    0.3476168218    0.0131590290          0.4891
C348       C   -0.0000000000    0.3781493625    0.0000000000         -0.4956
N349       N    0.0340253073    0.3695841633   -0.0011057006         -0.4894
N350       N    0.0338343429    0.3353908656   -0.0064414544         -0.4865
H351       H    0.0563676647    0.3277708211   -0.0018370850         -0.4871
H352       H    0.0431819396    0.3719057259    0.0211927088         -0.5066
H353       H   -0.0344124221    0.3398367454   -0.0041582091         -0.4996
H354       H   -0.0080939738    0.3819313279   -0.0244419252         -0.4761
H355       H   -0.0285240824    0.3517377895    0.0359291914           0.468
H356       H    0.0204361912    0.3274083959    0.0406337518           0.471
H357       H    0.0785047716    0.2604985682    0.0382266767          0.4795
H358       H    0.0624148275    0.2980016112    0.0458908700          0.4722
H359       H    0.0765494448    0.2884887941    0.0072973674         -0.4933
C290       C   -0.3781493625   -0.0000000000    0.0000000000          0.4922
C291       C   -0.3615096764    0.0263069885   -0.0062092617         -0.5056
C292       C   -0.3299089624    0.0258420349   -0.0084136287          -0.506
C293       C   -0.3120796982   -0.0008073209   -0.0047104960          0.4913
C294       C   -0.3297159476   -0.0270963484    0.0016998687          0.4892
C295       C   -0.3615404029   -0.0267629595    0.0039822826          0.4896
C296       C   -0.2792943328   -0.0004340041   -0.0073609224          0.4907
H297       H   -0.3201257423    0.0491705704   -0.0127326088         -0.5033
H298       H   -0.3734209410    0.0490551840   -0.0094995217         -0.5032
H299       H   -0.3738557026   -0.0489689719    0.0089289830          0.4876
H300       H   -0.3193651217   -0.0503517875    0.0047108770          0.4864
C301       C   -0.2642857790    0.0259366279   -0.0179499137          0.4893
C302       C   -0.2328267770    0.0289854119   -0.0211820521          0.4889
C303       C   -0.2133612349    0.0047196779   -0.0139869379          0.4897
C304       C   -0.2270146570   -0.0221681204   -0.0036690531          0.4909
C305       C   -0.2592047050   -0.0249061438   -0.0002643366          0.4915
C306       C   -0.1768828841    0.0090396349   -0.0178423946          0.4893
C307       C   -0.2206987249    0.0607287165   -0.0341457539          0.4867
H308       H   -0.2771890208    0.0467638806   -0.0253306203          0.4878
C309       C   -0.2618930064   -0.0494980925    0.0093998316         -0.5068
H310       H   -0.2103565382   -0.0415333646    0.0018349170          0.4914
N311       N   -0.2652104578   -0.0703836630    0.0265930575          -0.498
C312       C   -0.1523831782   -0.0179278602   -0.0114420611          0.4891
C313       C   -0.1218506375   -0.0000000000    0.0000000000         -0.4956
N314       N   -0.1304158367    0.0339678481   -0.0022648204         -0.4894
N315       N   -0.1646091344    0.0343055255    0.0030636606         -0.4865
H316       H   -0.1722291789    0.0562730033   -0.0037466790         -0.4871
H317       H   -0.1280942741    0.0408742780   -0.0253594995         -0.5066
H318       H   -0.1601632546   -0.0338324647    0.0075412087         -0.4996
H319       H   -0.1180686721   -0.0056369877    0.0251225893         -0.4761
H320       H   -0.1482622105   -0.0319376340   -0.0329320150           0.468
H321       H   -0.1725916041    0.0163173257   -0.0424556778           0.471
H322       H   -0.2395014318    0.0743392777   -0.0458033815          0.4795
H323       H   -0.2019983888    0.0575702283   -0.0518387061          0.4722
H324       H   -0.2115112059    0.0754524433   -0.0148323251         -0.4933
C255       C    0.3781493625   -0.0000000000    0.0000000000          0.4922
C256       C    0.3615096764   -0.0178476892    0.0202995707         -0.5056
C257       C    0.3299089624   -0.0195746894    0.0188528897          -0.506
C258       C    0.3120796982   -0.0037779669   -0.0029270303          0.4913
C259       C    0.3297159476    0.0142387727   -0.0231162064          0.4892
C260       C    0.3615404029    0.0160965084   -0.0217489539          0.4896
C261       C    0.2792943328   -0.0062927464   -0.0038435507          0.4907
H262       H    0.3201257423   -0.0343537863    0.0374123200         -0.5033
H263       H    0.3734209410   -0.0314460056    0.0388304098         -0.5032
H264       H    0.3738557026    0.0309019162   -0.0390225387          0.4876
H265       H    0.3193651217    0.0278290846   -0.0422260218          0.4864
C266       C    0.2642857790   -0.0280359220    0.0144532054          0.4893
C267       C    0.2328267770   -0.0323219062    0.0156245900          0.4889
C268       C    0.2133612349   -0.0145637288   -0.0024098951          0.4897
C269       C    0.2270146570    0.0071832959   -0.0212905559          0.4909
C270       C    0.2592047050    0.0114755044   -0.0221065301          0.4915
C271       C    0.1768828841   -0.0199974567   -0.0004096007          0.4893
C272       C    0.2206987249   -0.0586867970    0.0375468956          0.4867
H273       H    0.2771890208   -0.0443414144    0.0293656230          0.4878
C274       C    0.2618930064    0.0315662377   -0.0392681886         -0.5068
H275       H    0.2103565382    0.0211450579   -0.0357948855          0.4914
N276       N    0.2652104578    0.0565597146   -0.0496190428          -0.498
C277       C    0.1523831782   -0.0016706112   -0.0212023110          0.4891
C278       C    0.1218506375   -0.0000000000    0.0000000000         -0.4956
N279       N    0.1304158367   -0.0179678122    0.0289154256         -0.4894
N280       N    0.1646091344   -0.0134236218    0.0317184721         -0.4865
H281       H    0.1722291789   -0.0297617456    0.0479053963         -0.4871
H282       H    0.1280942741   -0.0415980993    0.0241538600         -0.5066
H283       H    0.1601632546    0.0225611273   -0.0263154144         -0.4996
H284       H    0.1180686721    0.0248233419    0.0068353360         -0.4761
H285       H    0.1482622105   -0.0140514925   -0.0436701916           0.468
H286       H    0.1725916041   -0.0451426059   -0.0055574122           0.471
H287       H    0.2395014318   -0.0753744254    0.0440791784          0.4795
H288       H    0.2019983888   -0.0728178066    0.0264414387          0.4722
H289       H    0.2115112059   -0.0485625670    0.0596216919         -0.4933
C220       C    0.0000000000    0.0000000000   -0.1218506375          0.4922
C221       C    0.0041252808   -0.0267131922   -0.1384903236         -0.5056
C222       C    0.0063593412   -0.0264226928   -0.1700910376          -0.506
C223       C    0.0047593301    0.0004351054   -0.1879203018          0.4913
C224       C    0.0004321570    0.0271461763   -0.1702840524          0.4892
C225       C   -0.0018693831    0.0269929617   -0.1384595971          0.4896
C226       C    0.0073722783   -0.0001450906   -0.2207056672          0.4907
H227       H    0.0088339497   -0.0500182532   -0.1798742577         -0.5033
H228       H    0.0056198934   -0.0496494591   -0.1265790590         -0.5032
H229       H   -0.0050578817    0.0495187316   -0.1261442974          0.4876
H230       H   -0.0007442521    0.0505662037   -0.1806348783          0.4864
C231       C    0.0158587815   -0.0272654931   -0.2357142210          0.4893
C232       C    0.0188416507   -0.0305585606   -0.2671732230          0.4889
C233       C    0.0135733417   -0.0058029465   -0.2866387651          0.4897
C234       C    0.0053977007    0.0218117477   -0.2729853430          0.4909
C235       C    0.0022183943    0.0248085590   -0.2407952950          0.4915
C236       C    0.0170778324   -0.0104121894   -0.3231171159          0.4893
C237       C    0.0292738396   -0.0632214507   -0.2793012751          0.4867
H238       H    0.0215819956   -0.0486078010   -0.2228109792          0.4878
C239       C   -0.0054857472    0.0500831766   -0.2381069936         -0.5068
H240       H    0.0014306809    0.0415492533   -0.2896434618          0.4914
N241       N   -0.0209866308    0.0722538031   -0.2347895422          -0.498
C242       C    0.0128139121    0.0169744688   -0.3476168218          0.4891
C243       C   -0.0000000000    0.0000000000   -0.3781493625         -0.4956
N244       N   -0.0004082894   -0.0340408198   -0.3695841633         -0.4894
N245       N   -0.0057468359   -0.0339592251   -0.3353908656         -0.4865
H246       H   -0.0006817250   -0.0563934726   -0.3277708211         -0.4871
H247       H    0.0220730581   -0.0427386350   -0.3719057259         -0.5066
H248       H   -0.0048624471    0.0343199957   -0.3398367454         -0.4996
H249       H   -0.0246026395    0.0075914591   -0.3819313279         -0.4761
H250       H    0.0353371895    0.0292542837   -0.3517377895           0.468
H251       H    0.0410439589   -0.0195993147   -0.3274083959           0.471
H252       H    0.0398272151   -0.0777050250   -0.2604985682          0.4795
H253       H    0.0471601163   -0.0614614194   -0.2980016112          0.4722
H254       H    0.0088643346   -0.0763838506   -0.2884887941         -0.4933
C185       C   -0.0000000000    0.0000000000    0.1218506375          0.4922
C186       C    0.0269375932    0.0022312884    0.1384903236         -0.5056
C187       C    0.0271771933   -0.0000088025    0.1700910376          -0.506
C188       C    0.0006891043   -0.0047292362    0.1879203018          0.4913
C189       C   -0.0262936048   -0.0067637264    0.1702840524          0.4892
C190       C   -0.0266824575   -0.0044901048    0.1384595971          0.4896
C191       C    0.0018638319   -0.0071342603    0.2207056672          0.4907
H192       H    0.0506977413    0.0030989268    0.1798742577         -0.5033
H193       H    0.0495880953    0.0061378168    0.1265790590         -0.5032
H194       H   -0.0493296560   -0.0066537199    0.1261442974          0.4876
H195       H   -0.0493401157   -0.0110926937    0.1806348783          0.4864
C196       C    0.0302164941   -0.0090482897    0.2357142210          0.4893
C197       C    0.0341154265   -0.0111790476    0.2671732230          0.4889
C198       C    0.0088141091   -0.0118415063    0.2866387651          0.4897
C199       C   -0.0199465172   -0.0103452387    0.2729853430          0.4909
C200       C   -0.0236032992   -0.0079542531    0.2407952950          0.4915
C201       C    0.0141146693   -0.0141718791    0.3231171159          0.4893
C202       C    0.0683117928   -0.0136897215    0.2793012751          0.4867
H203       H    0.0523053105   -0.0096257646    0.2228109792          0.4878
C204       C   -0.0499784572   -0.0063696003    0.2381069936         -0.5068
H205       H   -0.0400645742   -0.0111003240    0.2896434618          0.4914
N206       N   -0.0751575104    0.0035212719    0.2347895422          -0.498
C207       C   -0.0135101413   -0.0164257425    0.3476168218          0.4891
C208       C    0.0000000000    0.0000000000    0.3781493625         -0.4956
N209       N    0.0330029366    0.0083516639    0.3695841633         -0.4894
N210       N    0.0316760863    0.0135233372    0.3353908656         -0.4865
H211       H    0.0546728242    0.0138409100    0.3277708211         -0.4871
H212       H    0.0467133934   -0.0114747414    0.3719057259         -0.5066
H213       H   -0.0345060519   -0.0032920941    0.3398367454         -0.4996
H214       H   -0.0131304367    0.0221474999    0.3819313279         -0.4761
H215       H   -0.0201867175   -0.0411949816    0.3517377895           0.468
H216       H    0.0286478529   -0.0353276127    0.3274083959           0.471
H217       H    0.0848604854   -0.0205663801    0.2604985682          0.4795
H218       H    0.0707801663   -0.0314920735    0.2980016112          0.4722
H219       H    0.0763404659    0.0092305114    0.2884887941         -0.4933
loop_
_geom_bond_atom_site_label_1
_geom_bond_atom_site_label_2
_geom_bond_distance
_geom_bond_site_symmetry_2
_ccdc_geom_bond_type
Zn1          O5 1.942       .   S
Zn1          O6 1.922       .   S
Zn1         O10 1.922       .   S
Zn1         O17 1.922       .   S
Zn2          O5 1.942       .   S
Zn2          O7 1.922       .   S
Zn2          O9 1.922       .   S
Zn2         O13 1.922       .   S
Zn3          O5 1.942       .   S
Zn3          O8 1.922       .   S
Zn3         O11 1.922       .   S
Zn3         O14 1.922       .   S
Zn4          O5 1.942       .   S
Zn4         O12 1.922       .   S
Zn4         O15 1.922       .   S
Zn4         O16 1.922       .   S
O6          C18 1.304       .   A
O7          C19 1.304       .   A
O8          C20 1.304       .   A
O9          C18 1.304       .   A
O10         C20 1.304       .   A
O11         C19 1.304       .   A
O12         C21 1.304       .   A
O13         C22 1.304       .   A
O14         C21 1.304       .   A
O15         C22 1.304       .   A
O16         C23 1.304       .   A
O17         C23 1.304       .   A
C18        C185 1.540       .   S
C19        C278 1.540       .   S
C20        C383 1.540       .   S
C21        C220 1.540       .   S
C22        C325 1.540       .   S
C23        C313 1.540       .   S
Zn24        O28 1.942       .   S
Zn24        O29 1.922       .   S
Zn24        O33 1.922       .   S
Zn24        O40 1.922       .   S
Zn25        O28 1.942       .   S
Zn25        O30 1.922       .   S
Zn25        O32 1.922       .   S
Zn25        O36 1.922       .   S
Zn26        O28 1.942       .   S
Zn26        O31 1.922       .   S
Zn26        O34 1.922       .   S
Zn26        O37 1.922       .   S
Zn27        O28 1.942       .   S
Zn27        O35 1.922       .   S
Zn27        O38 1.922       .   S
Zn27        O39 1.922       .   S
O29         C41 1.304       .   A
O30         C42 1.304       .   A
O31         C43 1.304       .   A
O32         C41 1.304       .   A
O33         C43 1.304       .   A
O34         C42 1.304       .   A
O35         C44 1.304       .   A
O36         C45 1.304       .   A
O37         C44 1.304       .   A
O38         C45 1.304       .   A
O39         C46 1.304       .   A
O40         C46 1.304       .   A
C41        C500 1.540       .   S
C42        C418 1.540       .   S
C43        C208 1.540   1_655   S
C44        C465 1.540       .   S
C45        C243 1.540   1_656   S
C46        C430 1.540       .   S
Zn47        O51 1.942       .   S
Zn47        O52 1.922       .   S
Zn47        O56 1.922       .   S
Zn47        O63 1.922       .   S
Zn48        O51 1.942       .   S
Zn48        O53 1.922       .   S
Zn48        O55 1.922       .   S
Zn48        O59 1.922       .   S
Zn49        O51 1.942       .   S
Zn49        O54 1.922       .   S
Zn49        O57 1.922       .   S
Zn49        O60 1.922       .   S
Zn50        O51 1.942       .   S
Zn50        O58 1.922       .   S
Zn50        O61 1.922       .   S
Zn50        O62 1.922       .   S
O52         C64 1.304       .   A
O53         C65 1.304       .   A
O54         C66 1.304       .   A
O55         C64 1.304       .   A
O56         C66 1.304       .   A
O57         C65 1.304       .   A
O58         C67 1.304       .   A
O59         C68 1.304       .   A
O60         C67 1.304       .   A
O61         C68 1.304       .   A
O62         C69 1.304       .   A
O63         C69 1.304       .   A
C64        C348 1.540   1_655   S
C65        C558 1.540       .   S
C66        C605 1.540       .   S
C67        C360 1.540   1_665   S
C68        C663 1.540       .   S
C69        C570 1.540       .   S
Zn70        O74 1.942       .   S
Zn70        O75 1.922       .   S
Zn70        O79 1.922       .   S
Zn70        O86 1.922       .   S
Zn71        O74 1.942       .   S
Zn71        O76 1.922       .   S
Zn71        O78 1.922       .   S
Zn71        O82 1.922       .   S
Zn72        O74 1.942       .   S
Zn72        O77 1.922       .   S
Zn72        O80 1.922       .   S
Zn72        O83 1.922       .   S
Zn73        O74 1.942       .   S
Zn73        O81 1.922       .   S
Zn73        O84 1.922       .   S
Zn73        O85 1.922       .   S
O75         C87 1.304       .   A
O76         C88 1.304       .   A
O77         C89 1.304       .   A
O78         C87 1.304       .   A
O79         C89 1.304       .   A
O80         C88 1.304       .   A
O81         C90 1.304       .   A
O82         C91 1.304       .   A
O83         C90 1.304       .   A
O84         C91 1.304       .   A
O85         C92 1.304       .   A
O86         C92 1.304       .   A
C87        C488 1.540       .   S
C88        C535 1.540       .   S
C89        C733 1.540       .   S
C90        C523 1.540   1_565   S
C91        C675 1.540       .   S
C92        C593 1.540   1_556   S
Zn93        O97 1.942       .   S
Zn93        O98 1.922       .   S
Zn93       O102 1.922       .   S
Zn93       O109 1.922       .   S
Zn94        O97 1.942       .   S
Zn94        O99 1.922       .   S
Zn94       O101 1.922       .   S
Zn94       O105 1.922       .   S
Zn95        O97 1.942       .   S
Zn95       O100 1.922       .   S
Zn95       O103 1.922       .   S
Zn95       O106 1.922       .   S
Zn96        O97 1.942       .   S
Zn96       O104 1.922       .   S
Zn96       O107 1.922       .   S
Zn96       O108 1.922       .   S
O98        C110 1.304       .   A
O99        C111 1.304       .   A
O100       C112 1.304       .   A
O101       C110 1.304       .   A
O102       C112 1.304       .   A
O103       C111 1.304       .   A
O104       C113 1.304       .   A
O105       C114 1.304       .   A
O106       C113 1.304       .   A
O107       C114 1.304       .   A
O108       C115 1.304       .   A
O109       C115 1.304       .   A
C110       C255 1.540   1_565   S
C111       C745 1.540       .   S
C112       C850 1.540       .   S
C113       C290 1.540   1_665   S
C114       C838 1.540       .   S
C115       C780 1.540       .   S
Zn116      O120 1.942       .   S
Zn116      O121 1.922       .   S
Zn116      O125 1.922       .   S
Zn116      O132 1.922       .   S
Zn117      O120 1.942       .   S
Zn117      O122 1.922       .   S
Zn117      O124 1.922       .   S
Zn117      O128 1.922       .   S
Zn118      O120 1.942       .   S
Zn118      O123 1.922       .   S
Zn118      O126 1.922       .   S
Zn118      O129 1.922       .   S
Zn119      O120 1.942       .   S
Zn119      O127 1.922       .   S
Zn119      O130 1.922       .   S
Zn119      O131 1.922       .   S
O121       C133 1.304       .   A
O122       C134 1.304       .   A
O123       C135 1.304       .   A
O124       C133 1.304       .   A
O125       C135 1.304       .   A
O126       C134 1.304       .   A
O127       C136 1.304       .   A
O128       C137 1.304       .   A
O129       C136 1.304       .   A
O130       C137 1.304       .   A
O131       C138 1.304       .   A
O132       C138 1.304       .   A
C133       C395 1.540   1_465   S
C134       C803 1.540   1_556   S
C135       C943 1.540       .   S
C136       C453 1.540   1_565   S
C137       C885 1.540       .   S
C138       C768 1.540       .   S
Zn139      O143 1.942       .   S
Zn139      O144 1.922       .   S
Zn139      O148 1.922       .   S
Zn139      O155 1.922       .   S
Zn140      O143 1.942       .   S
Zn140      O145 1.922       .   S
Zn140      O147 1.922       .   S
Zn140      O151 1.922       .   S
Zn141      O143 1.942       .   S
Zn141      O146 1.922       .   S
Zn141      O149 1.922       .   S
Zn141      O152 1.922       .   S
Zn142      O143 1.942       .   S
Zn142      O150 1.922       .   S
Zn142      O153 1.922       .   S
Zn142      O154 1.922       .   S
O144       C156 1.304       .   A
O145       C157 1.304       .   A
O146       C158 1.304       .   A
O147       C156 1.304       .   A
O148       C158 1.304       .   A
O149       C157 1.304       .   A
O150       C159 1.304       .   A
O151       C160 1.304       .   A
O152       C159 1.304       .   A
O153       C160 1.304       .   A
O154       C161 1.304       .   A
O155       C161 1.304       .   A
C156       C990 1.540       .   S
C157       C873 1.540       .   S
C158       C628 1.540   1_455   S
C159       C955 1.540       .   S
C160       C640 1.540       .   S
C161       C815 1.540   1_545   S
Zn162      O166 1.942       .   S
Zn162      O167 1.922       .   S
Zn162      O171 1.922       .   S
Zn162      O178 1.922       .   S
Zn163      O166 1.942       .   S
Zn163      O168 1.922       .   S
Zn163      O170 1.922       .   S
Zn163      O174 1.922       .   S
Zn164      O166 1.942       .   S
Zn164      O169 1.922       .   S
Zn164      O172 1.922       .   S
Zn164      O175 1.922       .   S
Zn165      O166 1.942       .   S
Zn165      O173 1.922       .   S
Zn165      O176 1.922       .   S
Zn165      O177 1.922       .   S
O167       C179 1.304       .   A
O168       C180 1.304       .   A
O169       C181 1.304       .   A
O170       C179 1.304       .   A
O171       C181 1.304       .   A
O172       C180 1.304       .   A
O173       C182 1.304       .   A
O174       C183 1.304       .   A
O175       C182 1.304       .   A
O176       C183 1.304       .   A
O177       C184 1.304       .   A
O178       C184 1.304       .   A
C179       C698 1.540   1_455   S
C180      C1013 1.540   1_556   S
C181       C908 1.540   1_545   S
C182       C710 1.540       .   S
C183       C920 1.540       .   S
C184       C978 1.540       .   S
C990       C991 0.027       .   A
C990       C995 0.027       .   A
C991       C992 0.027       .   A
C991       H998 0.022       .   A
C992       C993 0.028       .   A
C992       H997 0.022       .   A
C993       C994 0.028       .   A
C993       C996 0.028       .   A
C994       C995 0.028       .   A
C994      H1000 0.022       .   A
C995       H999 0.022       .   A
C996      C1001 0.028       .   A
C996      C1005 0.028       .   A
C1001     C1002 0.027       .   A
C1001     H1008 0.022       .   A
C1002     C1003 0.028       .   A
C1002     C1007 0.031       .   A
C1003     C1004 0.028       .   A
C1003     C1006 0.032       .   A
C1004     C1005 0.028       .   A
C1004     H1010 0.023       .   A
C1005     C1009 0.023       .   A
C1006     C1012 0.032       .   A
C1006     N1015 0.030       .   A
C1006     H1021 0.022       .   A
C1007     H1022 0.022       .   A
C1007     H1023 0.022       .   A
C1007     H1024 0.022       .   A
C1009     N1011 0.024       .   A
C1012     C1013 0.032       .   A
C1012     H1018 0.022       .   A
C1012     H1020 0.022       .   A
C1013     N1014 0.030       .   A
C1013     H1019 0.022       .   A
N1014     N1015 0.030       .   A
N1014     H1017 0.021       .   A
N1015     H1016 0.021       .   A
C955       C956 0.027       .   A
C955       C960 0.027       .   A
C956       C957 0.027       .   A
C956       H963 0.022       .   A
C957       C958 0.028       .   A
C957       H962 0.022       .   A
C958       C959 0.028       .   A
C958       C961 0.028       .   A
C959       C960 0.028       .   A
C959       H965 0.022       .   A
C960       H964 0.022       .   A
C961       C966 0.028       .   A
C961       C970 0.028       .   A
C966       C967 0.027       .   A
C966       H973 0.022       .   A
C967       C968 0.028       .   A
C967       C972 0.031       .   A
C968       C969 0.028       .   A
C968       C971 0.032       .   A
C969       C970 0.028       .   A
C969       H975 0.023       .   A
C970       C974 0.023       .   A
C971       C977 0.032       .   A
C971       N980 0.030       .   A
C971       H986 0.022       .   A
C972       H987 0.022       .   A
C972       H988 0.022       .   A
C972       H989 0.022       .   A
C974       N976 0.024       .   A
C977       C978 0.032       .   A
C977       H983 0.022       .   A
C977       H985 0.022       .   A
C978       N979 0.030       .   A
C978       H984 0.022       .   A
N979       N980 0.030       .   A
N979       H982 0.021       .   A
N980       H981 0.021       .   A
C920       C921 0.027       .   A
C920       C925 0.027       .   A
C921       C922 0.027       .   A
C921       H928 0.022       .   A
C922       C923 0.028       .   A
C922       H927 0.022       .   A
C923       C924 0.028       .   A
C923       C926 0.028       .   A
C924       C925 0.028       .   A
C924       H930 0.022       .   A
C925       H929 0.022       .   A
C926       C931 0.028       .   A
C926       C935 0.028       .   A
C931       C932 0.027       .   A
C931       H938 0.022       .   A
C932       C933 0.028       .   A
C932       C937 0.031       .   A
C933       C934 0.028       .   A
C933       C936 0.032       .   A
C934       C935 0.028       .   A
C934       H940 0.023       .   A
C935       C939 0.023       .   A
C936       C942 0.032       .   A
C936       N945 0.030       .   A
C936       H951 0.022       .   A
C937       H952 0.022       .   A
C937       H953 0.022       .   A
C937       H954 0.022       .   A
C939       N941 0.024       .   A
C942       C943 0.032       .   A
C942       H948 0.022       .   A
C942       H950 0.022       .   A
C943       N944 0.030       .   A
C943       H949 0.022       .   A
N944       N945 0.030       .   A
N944       H947 0.021       .   A
N945       H946 0.021       .   A
C885       C886 0.027       .   A
C885       C890 0.027       .   A
C886       C887 0.027       .   A
C886       H893 0.022       .   A
C887       C888 0.028       .   A
C887       H892 0.022       .   A
C888       C889 0.028       .   A
C888       C891 0.028       .   A
C889       C890 0.028       .   A
C889       H895 0.022       .   A
C890       H894 0.022       .   A
C891       C896 0.028       .   A
C891       C900 0.028       .   A
C896       C897 0.027       .   A
C896       H903 0.022       .   A
C897       C898 0.028       .   A
C897       C902 0.031       .   A
C898       C899 0.028       .   A
C898       C901 0.032       .   A
C899       C900 0.028       .   A
C899       H905 0.023       .   A
C900       C904 0.023       .   A
C901       C907 0.032       .   A
C901       N910 0.030       .   A
C901       H916 0.022       .   A
C902       H917 0.022       .   A
C902       H918 0.022       .   A
C902       H919 0.022       .   A
C904       N906 0.024       .   A
C907       C908 0.032       .   A
C907       H913 0.022       .   A
C907       H915 0.022       .   A
C908       N909 0.030       .   A
C908       H914 0.022       .   A
N909       N910 0.030       .   A
N909       H912 0.021       .   A
N910       H911 0.021       .   A
C850       C851 0.027       .   A
C850       C855 0.027       .   A
C851       C852 0.027       .   A
C851       H858 0.022       .   A
C852       C853 0.028       .   A
C852       H857 0.022       .   A
C853       C854 0.028       .   A
C853       C856 0.028       .   A
C854       C855 0.028       .   A
C854       H860 0.022       .   A
C855       H859 0.022       .   A
C856       C861 0.028       .   A
C856       C865 0.028       .   A
C861       C862 0.027       .   A
C861       H868 0.022       .   A
C862       C863 0.028       .   A
C862       C867 0.031       .   A
C863       C864 0.028       .   A
C863       C866 0.032       .   A
C864       C865 0.028       .   A
C864       H870 0.023       .   A
C865       C869 0.023       .   A
C866       C872 0.032       .   A
C866       N875 0.030       .   A
C866       H881 0.022       .   A
C867       H882 0.022       .   A
C867       H883 0.022       .   A
C867       H884 0.022       .   A
C869       N871 0.024       .   A
C872       C873 0.032       .   A
C872       H878 0.022       .   A
C872       H880 0.022       .   A
C873       N874 0.030       .   A
C873       H879 0.022       .   A
N874       N875 0.030       .   A
N874       H877 0.021       .   A
N875       H876 0.021       .   A
C815       C816 0.027       .   A
C815       C820 0.027       .   A
C816       C817 0.027       .   A
C816       H823 0.022       .   A
C817       C818 0.028       .   A
C817       H822 0.022       .   A
C818       C819 0.028       .   A
C818       C821 0.028       .   A
C819       C820 0.028       .   A
C819       H825 0.022       .   A
C820       H824 0.022       .   A
C821       C826 0.028       .   A
C821       C830 0.028       .   A
C826       C827 0.027       .   A
C826       H833 0.022       .   A
C827       C828 0.028       .   A
C827       C832 0.031       .   A
C828       C829 0.028       .   A
C828       C831 0.032       .   A
C829       C830 0.028       .   A
C829       H835 0.023       .   A
C830       C834 0.023       .   A
C831       C837 0.032       .   A
C831       N840 0.030       .   A
C831       H846 0.022       .   A
C832       H847 0.022       .   A
C832       H848 0.022       .   A
C832       H849 0.022       .   A
C834       N836 0.024       .   A
C837       C838 0.032       .   A
C837       H843 0.022       .   A
C837       H845 0.022       .   A
C838       N839 0.030       .   A
C838       H844 0.022       .   A
N839       N840 0.030       .   A
N839       H842 0.021       .   A
N840       H841 0.021       .   A
C780       C781 0.027       .   A
C780       C785 0.027       .   A
C781       C782 0.027       .   A
C781       H788 0.022       .   A
C782       C783 0.028       .   A
C782       H787 0.022       .   A
C783       C784 0.028       .   A
C783       C786 0.028       .   A
C784       C785 0.028       .   A
C784       H790 0.022       .   A
C785       H789 0.022       .   A
C786       C791 0.028       .   A
C786       C795 0.028       .   A
C791       C792 0.027       .   A
C791       H798 0.022       .   A
C792       C793 0.028       .   A
C792       C797 0.031       .   A
C793       C794 0.028       .   A
C793       C796 0.032       .   A
C794       C795 0.028       .   A
C794       H800 0.023       .   A
C795       C799 0.023       .   A
C796       C802 0.032       .   A
C796       N805 0.030       .   A
C796       H811 0.022       .   A
C797       H812 0.022       .   A
C797       H813 0.022       .   A
C797       H814 0.022       .   A
C799       N801 0.024       .   A
C802       C803 0.032       .   A
C802       H808 0.022       .   A
C802       H810 0.022       .   A
C803       N804 0.030       .   A
C803       H809 0.022       .   A
N804       N805 0.030       .   A
N804       H807 0.021       .   A
N805       H806 0.021       .   A
C745       C746 0.027       .   A
C745       C750 0.027       .   A
C746       C747 0.027       .   A
C746       H753 0.022       .   A
C747       C748 0.028       .   A
C747       H752 0.022       .   A
C748       C749 0.028       .   A
C748       C751 0.028       .   A
C749       C750 0.028       .   A
C749       H755 0.022       .   A
C750       H754 0.022       .   A
C751       C756 0.028       .   A
C751       C760 0.028       .   A
C756       C757 0.027       .   A
C756       H763 0.022       .   A
C757       C758 0.028       .   A
C757       C762 0.031       .   A
C758       C759 0.028       .   A
C758       C761 0.032       .   A
C759       C760 0.028       .   A
C759       H765 0.023       .   A
C760       C764 0.023       .   A
C761       C767 0.032       .   A
C761       N770 0.030       .   A
C761       H776 0.022       .   A
C762       H777 0.022       .   A
C762       H778 0.022       .   A
C762       H779 0.022       .   A
C764       N766 0.024       .   A
C767       C768 0.032       .   A
C767       H773 0.022       .   A
C767       H775 0.022       .   A
C768       N769 0.030       .   A
C768       H774 0.022       .   A
N769       N770 0.030       .   A
N769       H772 0.021       .   A
N770       H771 0.021       .   A
C710       C711 0.027       .   A
C710       C715 0.027       .   A
C711       C712 0.027       .   A
C711       H718 0.022       .   A
C712       C713 0.028       .   A
C712       H717 0.022       .   A
C713       C714 0.028       .   A
C713       C716 0.028       .   A
C714       C715 0.028       .   A
C714       H720 0.022       .   A
C715       H719 0.022       .   A
C716       C721 0.028       .   A
C716       C725 0.028       .   A
C721       C722 0.027       .   A
C721       H728 0.022       .   A
C722       C723 0.028       .   A
C722       C727 0.031       .   A
C723       C724 0.028       .   A
C723       C726 0.032       .   A
C724       C725 0.028       .   A
C724       H730 0.023       .   A
C725       C729 0.023       .   A
C726       C732 0.032       .   A
C726       N735 0.030       .   A
C726       H741 0.022       .   A
C727       H742 0.022       .   A
C727       H743 0.022       .   A
C727       H744 0.022       .   A
C729       N731 0.024       .   A
C732       C733 0.032       .   A
C732       H738 0.022       .   A
C732       H740 0.022       .   A
C733       N734 0.030       .   A
C733       H739 0.022       .   A
N734       N735 0.030       .   A
N734       H737 0.021       .   A
N735       H736 0.021       .   A
C675       C676 0.027       .   A
C675       C680 0.027       .   A
C676       C677 0.027       .   A
C676       H683 0.022       .   A
C677       C678 0.028       .   A
C677       H682 0.022       .   A
C678       C679 0.028       .   A
C678       C681 0.028       .   A
C679       C680 0.028       .   A
C679       H685 0.022       .   A
C680       H684 0.022       .   A
C681       C686 0.028       .   A
C681       C690 0.028       .   A
C686       C687 0.027       .   A
C686       H693 0.022       .   A
C687       C688 0.028       .   A
C687       C692 0.031       .   A
C688       C689 0.028       .   A
C688       C691 0.032       .   A
C689       C690 0.028       .   A
C689       H695 0.023       .   A
C690       C694 0.023       .   A
C691       C697 0.032       .   A
C691       N700 0.030       .   A
C691       H706 0.022       .   A
C692       H707 0.022       .   A
C692       H708 0.022       .   A
C692       H709 0.022       .   A
C694       N696 0.024       .   A
C697       C698 0.032       .   A
C697       H703 0.022       .   A
C697       H705 0.022       .   A
C698       N699 0.030       .   A
C698       H704 0.022       .   A
N699       N700 0.030       .   A
N699       H702 0.021       .   A
N700       H701 0.021       .   A
C640       C641 0.027       .   A
C640       C645 0.027       .   A
C641       C642 0.027       .   A
C641       H648 0.022       .   A
C642       C643 0.028       .   A
C642       H647 0.022       .   A
C643       C644 0.028       .   A
C643       C646 0.028       .   A
C644       C645 0.028       .   A
C644       H650 0.022       .   A
C645       H649 0.022       .   A
C646       C651 0.028       .   A
C646       C655 0.028       .   A
C651       C652 0.027       .   A
C651       H658 0.022       .   A
C652       C653 0.028       .   A
C652       C657 0.031       .   A
C653       C654 0.028       .   A
C653       C656 0.032       .   A
C654       C655 0.028       .   A
C654       H660 0.023       .   A
C655       C659 0.023       .   A
C656       C662 0.032       .   A
C656       N665 0.030       .   A
C656       H671 0.022       .   A
C657       H672 0.022       .   A
C657       H673 0.022       .   A
C657       H674 0.022       .   A
C659       N661 0.024       .   A
C662       C663 0.032       .   A
C662       H668 0.022       .   A
C662       H670 0.022       .   A
C663       N664 0.030       .   A
C663       H669 0.022       .   A
N664       N665 0.030       .   A
N664       H667 0.021       .   A
N665       H666 0.021       .   A
C605       C606 0.027       .   A
C605       C610 0.027       .   A
C606       C607 0.027       .   A
C606       H613 0.022       .   A
C607       C608 0.028       .   A
C607       H612 0.022       .   A
C608       C609 0.028       .   A
C608       C611 0.028       .   A
C609       C610 0.028       .   A
C609       H615 0.022       .   A
C610       H614 0.022       .   A
C611       C616 0.028       .   A
C611       C620 0.028       .   A
C616       C617 0.027       .   A
C616       H623 0.022       .   A
C617       C618 0.028       .   A
C617       C622 0.031       .   A
C618       C619 0.028       .   A
C618       C621 0.032       .   A
C619       C620 0.028       .   A
C619       H625 0.023       .   A
C620       C624 0.023       .   A
C621       C627 0.032       .   A
C621       N630 0.030       .   A
C621       H636 0.022       .   A
C622       H637 0.022       .   A
C622       H638 0.022       .   A
C622       H639 0.022       .   A
C624       N626 0.024       .   A
C627       C628 0.032       .   A
C627       H633 0.022       .   A
C627       H635 0.022       .   A
C628       N629 0.030       .   A
C628       H634 0.022       .   A
N629       N630 0.030       .   A
N629       H632 0.021       .   A
N630       H631 0.021       .   A
C570       C571 0.027       .   A
C570       C575 0.027       .   A
C571       C572 0.027       .   A
C571       H578 0.022       .   A
C572       C573 0.028       .   A
C572       H577 0.022       .   A
C573       C574 0.028       .   A
C573       C576 0.028       .   A
C574       C575 0.028       .   A
C574       H580 0.022       .   A
C575       H579 0.022       .   A
C576       C581 0.028       .   A
C576       C585 0.028       .   A
C581       C582 0.027       .   A
C581       H588 0.022       .   A
C582       C583 0.028       .   A
C582       C587 0.031       .   A
C583       C584 0.028       .   A
C583       C586 0.032       .   A
C584       C585 0.028       .   A
C584       H590 0.023       .   A
C585       C589 0.023       .   A
C586       C592 0.032       .   A
C586       N595 0.030       .   A
C586       H601 0.022       .   A
C587       H602 0.022       .   A
C587       H603 0.022       .   A
C587       H604 0.022       .   A
C589       N591 0.024       .   A
C592       C593 0.032       .   A
C592       H598 0.022       .   A
C592       H600 0.022       .   A
C593       N594 0.030       .   A
C593       H599 0.022       .   A
N594       N595 0.030       .   A
N594       H597 0.021       .   A
N595       H596 0.021       .   A
C535       C536 0.027       .   A
C535       C540 0.027       .   A
C536       C537 0.027       .   A
C536       H543 0.022       .   A
C537       C538 0.028       .   A
C537       H542 0.022       .   A
C538       C539 0.028       .   A
C538       C541 0.028       .   A
C539       C540 0.028       .   A
C539       H545 0.022       .   A
C540       H544 0.022       .   A
C541       C546 0.028       .   A
C541       C550 0.028       .   A
C546       C547 0.027       .   A
C546       H553 0.022       .   A
C547       C548 0.028       .   A
C547       C552 0.031       .   A
C548       C549 0.028       .   A
C548       C551 0.032       .   A
C549       C550 0.028       .   A
C549       H555 0.023       .   A
C550       C554 0.023       .   A
C551       C557 0.032       .   A
C551       N560 0.030       .   A
C551       H566 0.022       .   A
C552       H567 0.022       .   A
C552       H568 0.022       .   A
C552       H569 0.022       .   A
C554       N556 0.024       .   A
C557       C558 0.032       .   A
C557       H563 0.022       .   A
C557       H565 0.022       .   A
C558       N559 0.030       .   A
C558       H564 0.022       .   A
N559       N560 0.030       .   A
N559       H562 0.021       .   A
N560       H561 0.021       .   A
C500       C501 0.027       .   A
C500       C505 0.027       .   A
C501       C502 0.027       .   A
C501       H508 0.022       .   A
C502       C503 0.028       .   A
C502       H507 0.022       .   A
C503       C504 0.028       .   A
C503       C506 0.028       .   A
C504       C505 0.028       .   A
C504       H510 0.022       .   A
C505       H509 0.022       .   A
C506       C511 0.028       .   A
C506       C515 0.028       .   A
C511       C512 0.027       .   A
C511       H518 0.022       .   A
C512       C513 0.028       .   A
C512       C517 0.031       .   A
C513       C514 0.028       .   A
C513       C516 0.032       .   A
C514       C515 0.028       .   A
C514       H520 0.023       .   A
C515       C519 0.023       .   A
C516       C522 0.032       .   A
C516       N525 0.030       .   A
C516       H531 0.022       .   A
C517       H532 0.022       .   A
C517       H533 0.022       .   A
C517       H534 0.022       .   A
C519       N521 0.024       .   A
C522       C523 0.032       .   A
C522       H528 0.022       .   A
C522       H530 0.022       .   A
C523       N524 0.030       .   A
C523       H529 0.022       .   A
N524       N525 0.030       .   A
N524       H527 0.021       .   A
N525       H526 0.021       .   A
C465       C466 0.027       .   A
C465       C470 0.027       .   A
C466       C467 0.027       .   A
C466       H473 0.022       .   A
C467       C468 0.028       .   A
C467       H472 0.022       .   A
C468       C469 0.028       .   A
C468       C471 0.028       .   A
C469       C470 0.028       .   A
C469       H475 0.022       .   A
C470       H474 0.022       .   A
C471       C476 0.028       .   A
C471       C480 0.028       .   A
C476       C477 0.027       .   A
C476       H483 0.022       .   A
C477       C478 0.028       .   A
C477       C482 0.031       .   A
C478       C479 0.028       .   A
C478       C481 0.032       .   A
C479       C480 0.028       .   A
C479       H485 0.023       .   A
C480       C484 0.023       .   A
C481       C487 0.032       .   A
C481       N490 0.030       .   A
C481       H496 0.022       .   A
C482       H497 0.022       .   A
C482       H498 0.022       .   A
C482       H499 0.022       .   A
C484       N486 0.024       .   A
C487       C488 0.032       .   A
C487       H493 0.022       .   A
C487       H495 0.022       .   A
C488       N489 0.030       .   A
C488       H494 0.022       .   A
N489       N490 0.030       .   A
N489       H492 0.021       .   A
N490       H491 0.021       .   A
C430       C431 0.027       .   A
C430       C435 0.027       .   A
C431       C432 0.027       .   A
C431       H438 0.022       .   A
C432       C433 0.028       .   A
C432       H437 0.022       .   A
C433       C434 0.028       .   A
C433       C436 0.028       .   A
C434       C435 0.028       .   A
C434       H440 0.022       .   A
C435       H439 0.022       .   A
C436       C441 0.028       .   A
C436       C445 0.028       .   A
C441       C442 0.027       .   A
C441       H448 0.022       .   A
C442       C443 0.028       .   A
C442       C447 0.031       .   A
C443       C444 0.028       .   A
C443       C446 0.032       .   A
C444       C445 0.028       .   A
C444       H450 0.023       .   A
C445       C449 0.023       .   A
C446       C452 0.032       .   A
C446       N455 0.030       .   A
C446       H461 0.022       .   A
C447       H462 0.022       .   A
C447       H463 0.022       .   A
C447       H464 0.022       .   A
C449       N451 0.024       .   A
C452       C453 0.032       .   A
C452       H458 0.022       .   A
C452       H460 0.022       .   A
C453       N454 0.030       .   A
C453       H459 0.022       .   A
N454       N455 0.030       .   A
N454       H457 0.021       .   A
N455       H456 0.021       .   A
C395       C396 0.027       .   A
C395       C400 0.027       .   A
C396       C397 0.027       .   A
C396       H403 0.022       .   A
C397       C398 0.028       .   A
C397       H402 0.022       .   A
C398       C399 0.028       .   A
C398       C401 0.028       .   A
C399       C400 0.028       .   A
C399       H405 0.022       .   A
C400       H404 0.022       .   A
C401       C406 0.028       .   A
C401       C410 0.028       .   A
C406       C407 0.027       .   A
C406       H413 0.022       .   A
C407       C408 0.028       .   A
C407       C412 0.031       .   A
C408       C409 0.028       .   A
C408       C411 0.032       .   A
C409       C410 0.028       .   A
C409       H415 0.023       .   A
C410       C414 0.023       .   A
C411       C417 0.032       .   A
C411       N420 0.030       .   A
C411       H426 0.022       .   A
C412       H427 0.022       .   A
C412       H428 0.022       .   A
C412       H429 0.022       .   A
C414       N416 0.024       .   A
C417       C418 0.032       .   A
C417       H423 0.022       .   A
C417       H425 0.022       .   A
C418       N419 0.030       .   A
C418       H424 0.022       .   A
N419       N420 0.030       .   A
N419       H422 0.021       .   A
N420       H421 0.021       .   A
C360       C361 0.027       .   A
C360       C365 0.027       .   A
C361       C362 0.027       .   A
C361       H368 0.022       .   A
C362       C363 0.028       .   A
C362       H367 0.022       .   A
C363       C364 0.028       .   A
C363       C366 0.028       .   A
C364       C365 0.028       .   A
C364       H370 0.022       .   A
C365       H369 0.022       .   A
C366       C371 0.028       .   A
C366       C375 0.028       .   A
C371       C372 0.027       .   A
C371       H378 0.022       .   A
C372       C373 0.028       .   A
C372       C377 0.031       .   A
C373       C374 0.028       .   A
C373       C376 0.032       .   A
C374       C375 0.028       .   A
C374       H380 0.023       .   A
C375       C379 0.023       .   A
C376       C382 0.032       .   A
C376       N385 0.030       .   A
C376       H391 0.022       .   A
C377       H392 0.022       .   A
C377       H393 0.022       .   A
C377       H394 0.022       .   A
C379       N381 0.024       .   A
C382       C383 0.032       .   A
C382       H388 0.022       .   A
C382       H390 0.022       .   A
C383       N384 0.030       .   A
C383       H389 0.022       .   A
N384       N385 0.030       .   A
N384       H387 0.021       .   A
N385       H386 0.021       .   A
C325       C326 0.027       .   A
C325       C330 0.027       .   A
C326       C327 0.027       .   A
C326       H333 0.022       .   A
C327       C328 0.028       .   A
C327       H332 0.022       .   A
C328       C329 0.028       .   A
C328       C331 0.028       .   A
C329       C330 0.028       .   A
C329       H335 0.022       .   A
C330       H334 0.022       .   A
C331       C336 0.028       .   A
C331       C340 0.028       .   A
C336       C337 0.027       .   A
C336       H343 0.022       .   A
C337       C338 0.028       .   A
C337       C342 0.031       .   A
C338       C339 0.028       .   A
C338       C341 0.032       .   A
C339       C340 0.028       .   A
C339       H345 0.023       .   A
C340       C344 0.023       .   A
C341       C347 0.032       .   A
C341       N350 0.030       .   A
C341       H356 0.022       .   A
C342       H357 0.022       .   A
C342       H358 0.022       .   A
C342       H359 0.022       .   A
C344       N346 0.024       .   A
C347       C348 0.032       .   A
C347       H353 0.022       .   A
C347       H355 0.022       .   A
C348       N349 0.030       .   A
C348       H354 0.022       .   A
N349       N350 0.030       .   A
N349       H352 0.021       .   A
N350       H351 0.021       .   A
C290       C291 0.027       .   A
C290       C295 0.027       .   A
C291       C292 0.027       .   A
C291       H298 0.022       .   A
C292       C293 0.028       .   A
C292       H297 0.022       .   A
C293       C294 0.028       .   A
C293       C296 0.028       .   A
C294       C295 0.028       .   A
C294       H300 0.022       .   A
C295       H299 0.022       .   A
C296       C301 0.028       .   A
C296       C305 0.028       .   A
C301       C302 0.027       .   A
C301       H308 0.022       .   A
C302       C303 0.028       .   A
C302       C307 0.031       .   A
C303       C304 0.028       .   A
C303       C306 0.032       .   A
C304       C305 0.028       .   A
C304       H310 0.023       .   A
C305       C309 0.023       .   A
C306       C312 0.032       .   A
C306       N315 0.030       .   A
C306       H321 0.022       .   A
C307       H322 0.022       .   A
C307       H323 0.022       .   A
C307       H324 0.022       .   A
C309       N311 0.024       .   A
C312       C313 0.032       .   A
C312       H318 0.022       .   A
C312       H320 0.022       .   A
C313       N314 0.030       .   A
C313       H319 0.022       .   A
N314       N315 0.030       .   A
N314       H317 0.021       .   A
N315       H316 0.021       .   A
C255       C256 0.027       .   A
C255       C260 0.027       .   A
C256       C257 0.027       .   A
C256       H263 0.022       .   A
C257       C258 0.028       .   A
C257       H262 0.022       .   A
C258       C259 0.028       .   A
C258       C261 0.028       .   A
C259       C260 0.028       .   A
C259       H265 0.022       .   A
C260       H264 0.022       .   A
C261       C266 0.028       .   A
C261       C270 0.028       .   A
C266       C267 0.027       .   A
C266       H273 0.022       .   A
C267       C268 0.028       .   A
C267       C272 0.031       .   A
C268       C269 0.028       .   A
C268       C271 0.032       .   A
C269       C270 0.028       .   A
C269       H275 0.023       .   A
C270       C274 0.023       .   A
C271       C277 0.032       .   A
C271       N280 0.030       .   A
C271       H286 0.022       .   A
C272       H287 0.022       .   A
C272       H288 0.022       .   A
C272       H289 0.022       .   A
C274       N276 0.024       .   A
C277       C278 0.032       .   A
C277       H283 0.022       .   A
C277       H285 0.022       .   A
C278       N279 0.030       .   A
C278       H284 0.022       .   A
N279       N280 0.030       .   A
N279       H282 0.021       .   A
N280       H281 0.021       .   A
C220       C221 0.027       .   A
C220       C225 0.027       .   A
C221       C222 0.027       .   A
C221       H228 0.022       .   A
C222       C223 0.028       .   A
C222       H227 0.022       .   A
C223       C224 0.028       .   A
C223       C226 0.028       .   A
C224       C225 0.028       .   A
C224       H230 0.022       .   A
C225       H229 0.022       .   A
C226       C231 0.028       .   A
C226       C235 0.028       .   A
C231       C232 0.027       .   A
C231       H238 0.022       .   A
C232       C233 0.028       .   A
C232       C237 0.031       .   A
C233       C234 0.028       .   A
C233       C236 0.032       .   A
C234       C235 0.028       .   A
C234       H240 0.023       .   A
C235       C239 0.023       .   A
C236       C242 0.032       .   A
C236       N245 0.030       .   A
C236       H251 0.022       .   A
C237       H252 0.022       .   A
C237       H253 0.022       .   A
C237       H254 0.022       .   A
C239       N241 0.024       .   A
C242       C243 0.032       .   A
C242       H248 0.022       .   A
C242       H250 0.022       .   A
C243       N244 0.030       .   A
C243       H249 0.022       .   A
N244       N245 0.030       .   A
N244       H247 0.021       .   A
N245       H246 0.021       .   A
C185       C186 0.027       .   A
C185       C190 0.027       .   A
C186       C187 0.027       .   A
C186       H193 0.022       .   A
C187       C188 0.028       .   A
C187       H192 0.022       .   A
C188       C189 0.028       .   A
C188       C191 0.028       .   A
C189       C190 0.028       .   A
C189       H195 0.022       .   A
C190       H194 0.022       .   A
C191       C196 0.028       .   A
C191       C200 0.028       .   A
C196       C197 0.027       .   A
C196       H203 0.022       .   A
C197       C198 0.028       .   A
C197       C202 0.031       .   A
C198       C199 0.028       .   A
C198       C201 0.032       .   A
C199       C200 0.028       .   A
C199       H205 0.023       .   A
C200       C204 0.023       .   A
C201       C207 0.032       .   A
C201       N210 0.030       .   A
C201       H216 0.022       .   A
C202       H217 0.022       .   A
C202       H218 0.022       .   A
C202       H219 0.022       .   A
C204       N206 0.024       .   A
C207       C208 0.032       .   A
C207       H213 0.022       .   A
C207       H215 0.022       .   A
C208       N209 0.030       .   A
C208       H214 0.022       .   A
N209       N210 0.030       .   A
N209       H212 0.021       .   A
N210       H211 0.021       .   A
