data_pcu_v1-6c_Zn_1_Ch_1-92_fer_tobacco
_audit_creation_date              2021-04-07
_audit_creation_method            'tobacco_3.0'
_symmetry_space_group_name_H-M    'P1'
_symmetry_Int_Tables_number       1
_symmetry_cell_setting            triclinic
loop_
_symmetry_equiv_pos_as_xyz
  x,y,z
_cell_length_a                    54.68178667744807
_cell_length_b                    54.68178667744807
_cell_length_c                    54.68178667744807
_cell_angle_alpha                 90.0
_cell_angle_beta                  90.0
_cell_angle_gamma                 90.0
loop_
_atom_site_label
_atom_site_type_symbol
_atom_site_fract_x
_atom_site_fract_y
_atom_site_fract_z
_atom_site_charge
Zn1       Zn    0.0205040850    0.0205040850    0.0205040850          1.4972
Zn2       Zn   -0.0205040850    0.0205040850   -0.0205040850          1.4936
Zn3       Zn    0.0205040850   -0.0205040850   -0.0205040850          1.4911
Zn4       Zn   -0.0205040850   -0.0205040850    0.0205040850          1.4948
O5         O    0.0000000000    0.0000000000    0.0000000000         -2.4712
O6         O    0.0150690029    0.0548006966    0.0150690029         -1.3775
O7         O   -0.0150690029    0.0150690029   -0.0548006966         -1.3757
O8         O    0.0548006966   -0.0150690029   -0.0150690029         -1.3708
O9         O   -0.0150690029    0.0548006966   -0.0150690029         -1.3776
O10        O    0.0548006966    0.0150690029    0.0150690029         -1.3736
O11        O    0.0150690029   -0.0150690029   -0.0548006966         -1.3795
O12        O   -0.0150690029   -0.0548006966    0.0150690029         -1.3734
O13        O   -0.0548006966    0.0150690029   -0.0150690029         -1.3809
O14        O    0.0150690029   -0.0548006966   -0.0150690029         -1.3748
O15        O   -0.0548006966   -0.0150690029    0.0150690029         -1.3795
O16        O   -0.0150690029   -0.0150690029    0.0548006966         -1.3786
O17        O    0.0150690029    0.0150690029    0.0548006966         -1.3765
C18        C    0.0000000000    0.0655209023    0.0000000000          0.1414
C19        C   -0.0000000000    0.0000000000   -0.0655209023          0.1463
C20        C    0.0655209023   -0.0000000000    0.0000000000          0.1359
C21        C   -0.0000000000   -0.0655209023   -0.0000000000          0.1397
C22        C   -0.0655209023    0.0000000000   -0.0000000000           0.151
C23        C    0.0000000000   -0.0000000000    0.0655209023          0.1415
Zn24      Zn    1.0205040850    0.0205040850    0.4794959150          1.4972
Zn25      Zn    0.9794959150   -0.0205040850    0.4794959150          1.4936
Zn26      Zn    1.0205040850   -0.0205040850    0.5205040850          1.4911
Zn27      Zn    0.9794959150    0.0205040850    0.5205040850          1.4948
O28        O    1.0000000000    0.0000000000    0.5000000000         -2.4712
O29        O    1.0150690029    0.0150690029    0.4451993034         -1.3775
O30        O    0.9849309971   -0.0548006966    0.4849309971         -1.3757
O31        O    1.0548006966   -0.0150690029    0.5150690029         -1.3708
O32        O    0.9849309971   -0.0150690029    0.4451993034         -1.3776
O33        O    1.0548006966    0.0150690029    0.4849309971         -1.3736
O34        O    1.0150690029   -0.0548006966    0.5150690029         -1.3795
O35        O    0.9849309971    0.0150690029    0.5548006966         -1.3734
O36        O    0.9451993034   -0.0150690029    0.4849309971         -1.3809
O37        O    1.0150690029   -0.0150690029    0.5548006966         -1.3748
O38        O    0.9451993034    0.0150690029    0.5150690029         -1.3795
O39        O    0.9849309971    0.0548006966    0.5150690029         -1.3786
O40        O    1.0150690029    0.0548006966    0.4849309971         -1.3765
C41        C    1.0000000000    0.0000000000    0.4344790977          0.1414
C42        C    1.0000000000   -0.0655209023    0.5000000000          0.1463
C43        C    1.0655209023    0.0000000000    0.5000000000          0.1359
C44        C    1.0000000000    0.0000000000    0.5655209023          0.1397
C45        C    0.9344790977    0.0000000000    0.5000000000           0.151
C46        C    1.0000000000    0.0655209023    0.5000000000          0.1415
Zn47      Zn    1.0205040850    0.4794959150   -0.0205040850          1.4972
Zn48      Zn    0.9794959150    0.4794959150    0.0205040850          1.4936
Zn49      Zn    1.0205040850    0.5205040850    0.0205040850          1.4911
Zn50      Zn    0.9794959150    0.5205040850   -0.0205040850          1.4948
O51        O    1.0000000000    0.5000000000    0.0000000000         -2.4712
O52        O    1.0150690029    0.4451993034   -0.0150690029         -1.3775
O53        O    0.9849309971    0.4849309971    0.0548006966         -1.3757
O54        O    1.0548006966    0.5150690029    0.0150690029         -1.3708
O55        O    0.9849309971    0.4451993034    0.0150690029         -1.3776
O56        O    1.0548006966    0.4849309971   -0.0150690029         -1.3736
O57        O    1.0150690029    0.5150690029    0.0548006966         -1.3795
O58        O    0.9849309971    0.5548006966   -0.0150690029         -1.3734
O59        O    0.9451993034    0.4849309971    0.0150690029         -1.3809
O60        O    1.0150690029    0.5548006966    0.0150690029         -1.3748
O61        O    0.9451993034    0.5150690029   -0.0150690029         -1.3795
O62        O    0.9849309971    0.5150690029   -0.0548006966         -1.3786
O63        O    1.0150690029    0.4849309971   -0.0548006966         -1.3765
C64        C    1.0000000000    0.4344790977    0.0000000000          0.1414
C65        C    1.0000000000    0.5000000000    0.0655209023          0.1463
C66        C    1.0655209023    0.5000000000    0.0000000000          0.1359
C67        C    1.0000000000    0.5655209023    0.0000000000          0.1397
C68        C    0.9344790977    0.5000000000    0.0000000000           0.151
C69        C    1.0000000000    0.5000000000   -0.0655209023          0.1415
Zn70      Zn    1.0205040850    0.4794959150    0.5205040850          1.4972
Zn71      Zn    0.9794959150    0.4794959150    0.4794959150          1.4936
Zn72      Zn    0.9794959150    0.5205040850    0.5205040850          1.4911
Zn73      Zn    1.0205040850    0.5205040850    0.4794959150          1.4948
O74        O    1.0000000000    0.5000000000    0.5000000000         -2.4712
O75        O    1.0150690029    0.4451993034    0.5150690029         -1.3775
O76        O    0.9451993034    0.4849309971    0.4849309971         -1.3757
O77        O    0.9849309971    0.5150690029    0.5548006966         -1.3708
O78        O    0.9849309971    0.4451993034    0.4849309971         -1.3776
O79        O    1.0150690029    0.4849309971    0.5548006966         -1.3736
O80        O    0.9451993034    0.5150690029    0.5150690029         -1.3795
O81        O    1.0150690029    0.5548006966    0.4849309971         -1.3734
O82        O    0.9849309971    0.4849309971    0.4451993034         -1.3809
O83        O    0.9849309971    0.5548006966    0.5150690029         -1.3748
O84        O    1.0150690029    0.5150690029    0.4451993034         -1.3795
O85        O    1.0548006966    0.5150690029    0.4849309971         -1.3786
O86        O    1.0548006966    0.4849309971    0.5150690029         -1.3765
C87        C    1.0000000000    0.4344790977    0.5000000000          0.1414
C88        C    0.9344790977    0.5000000000    0.5000000000          0.1463
C89        C    1.0000000000    0.5000000000    0.5655209023          0.1359
C90        C    1.0000000000    0.5655209023    0.5000000000          0.1397
C91        C    1.0000000000    0.5000000000    0.4344790977           0.151
C92        C    1.0655209023    0.5000000000    0.5000000000          0.1415
Zn93      Zn    0.4794959150    0.9794959150   -0.0205040850          1.4972
Zn94      Zn    0.4794959150    1.0205040850    0.0205040850          1.4936
Zn95      Zn    0.5205040850    0.9794959150    0.0205040850          1.4911
Zn96      Zn    0.5205040850    1.0205040850   -0.0205040850          1.4948
O97        O    0.5000000000    1.0000000000    0.0000000000         -2.4712
O98        O    0.4451993034    0.9849309971   -0.0150690029         -1.3775
O99        O    0.4849309971    1.0150690029    0.0548006966         -1.3757
O100       O    0.5150690029    0.9451993034    0.0150690029         -1.3708
O101       O    0.4451993034    1.0150690029    0.0150690029         -1.3776
O102       O    0.4849309971    0.9451993034   -0.0150690029         -1.3736
O103       O    0.5150690029    0.9849309971    0.0548006966         -1.3795
O104       O    0.5548006966    1.0150690029   -0.0150690029         -1.3734
O105       O    0.4849309971    1.0548006966    0.0150690029         -1.3809
O106       O    0.5548006966    0.9849309971    0.0150690029         -1.3748
O107       O    0.5150690029    1.0548006966   -0.0150690029         -1.3795
O108       O    0.5150690029    1.0150690029   -0.0548006966         -1.3786
O109       O    0.4849309971    0.9849309971   -0.0548006966         -1.3765
C110       C    0.4344790977    1.0000000000    0.0000000000          0.1414
C111       C    0.5000000000    1.0000000000    0.0655209023          0.1463
C112       C    0.5000000000    0.9344790977    0.0000000000          0.1359
C113       C    0.5655209023    1.0000000000    0.0000000000          0.1397
C114       C    0.5000000000    1.0655209023    0.0000000000           0.151
C115       C    0.5000000000    1.0000000000   -0.0655209023          0.1415
Zn116     Zn    0.4794959150    1.0205040850    0.5205040850          1.4972
Zn117     Zn    0.4794959150    0.9794959150    0.4794959150          1.4936
Zn118     Zn    0.5205040850    1.0205040850    0.4794959150          1.4911
Zn119     Zn    0.5205040850    0.9794959150    0.5205040850          1.4948
O120       O    0.5000000000    1.0000000000    0.5000000000         -2.4712
O121       O    0.4451993034    1.0150690029    0.5150690029         -1.3775
O122       O    0.4849309971    0.9849309971    0.4451993034         -1.3757
O123       O    0.5150690029    1.0548006966    0.4849309971         -1.3708
O124       O    0.4451993034    0.9849309971    0.4849309971         -1.3776
O125       O    0.4849309971    1.0548006966    0.5150690029         -1.3736
O126       O    0.5150690029    1.0150690029    0.4451993034         -1.3795
O127       O    0.5548006966    0.9849309971    0.5150690029         -1.3734
O128       O    0.4849309971    0.9451993034    0.4849309971         -1.3809
O129       O    0.5548006966    1.0150690029    0.4849309971         -1.3748
O130       O    0.5150690029    0.9451993034    0.5150690029         -1.3795
O131       O    0.5150690029    0.9849309971    0.5548006966         -1.3786
O132       O    0.4849309971    1.0150690029    0.5548006966         -1.3765
C133       C    0.4344790977    1.0000000000    0.5000000000          0.1414
C134       C    0.5000000000    1.0000000000    0.4344790977          0.1463
C135       C    0.5000000000    1.0655209023    0.5000000000          0.1359
C136       C    0.5655209023    1.0000000000    0.5000000000          0.1397
C137       C    0.5000000000    0.9344790977    0.5000000000           0.151
C138       C    0.5000000000    1.0000000000    0.5655209023          0.1415
Zn139     Zn    0.4794959150    0.5205040850   -0.0205040850          1.4972
Zn140     Zn    0.4794959150    0.4794959150    0.0205040850          1.4936
Zn141     Zn    0.5205040850    0.4794959150   -0.0205040850          1.4911
Zn142     Zn    0.5205040850    0.5205040850    0.0205040850          1.4948
O143       O    0.5000000000    0.5000000000    0.0000000000         -2.4712
O144       O    0.4451993034    0.5150690029   -0.0150690029         -1.3775
O145       O    0.4849309971    0.4451993034    0.0150690029         -1.3757
O146       O    0.5150690029    0.4849309971   -0.0548006966         -1.3708
O147       O    0.4451993034    0.4849309971    0.0150690029         -1.3776
O148       O    0.4849309971    0.5150690029   -0.0548006966         -1.3736
O149       O    0.5150690029    0.4451993034   -0.0150690029         -1.3795
O150       O    0.5548006966    0.5150690029    0.0150690029         -1.3734
O151       O    0.4849309971    0.4849309971    0.0548006966         -1.3809
O152       O    0.5548006966    0.4849309971   -0.0150690029         -1.3748
O153       O    0.5150690029    0.5150690029    0.0548006966         -1.3795
O154       O    0.5150690029    0.5548006966    0.0150690029         -1.3786
O155       O    0.4849309971    0.5548006966   -0.0150690029         -1.3765
C156       C    0.4344790977    0.5000000000    0.0000000000          0.1414
C157       C    0.5000000000    0.4344790977    0.0000000000          0.1463
C158       C    0.5000000000    0.5000000000   -0.0655209023          0.1359
C159       C    0.5655209023    0.5000000000    0.0000000000          0.1397
C160       C    0.5000000000    0.5000000000    0.0655209023           0.151
C161       C    0.5000000000    0.5655209023    0.0000000000          0.1415
Zn162     Zn    0.4794959150    0.5205040850    0.4794959150          1.4972
Zn163     Zn    0.4794959150    0.4794959150    0.5205040850          1.4936
Zn164     Zn    0.5205040850    0.4794959150    0.4794959150          1.4911
Zn165     Zn    0.5205040850    0.5205040850    0.5205040850          1.4948
O166       O    0.5000000000    0.5000000000    0.5000000000         -2.4712
O167       O    0.4451993034    0.5150690029    0.4849309971         -1.3775
O168       O    0.4849309971    0.4451993034    0.5150690029         -1.3757
O169       O    0.5150690029    0.4849309971    0.4451993034         -1.3708
O170       O    0.4451993034    0.4849309971    0.5150690029         -1.3776
O171       O    0.4849309971    0.5150690029    0.4451993034         -1.3736
O172       O    0.5150690029    0.4451993034    0.4849309971         -1.3795
O173       O    0.5548006966    0.5150690029    0.5150690029         -1.3734
O174       O    0.4849309971    0.4849309971    0.5548006966         -1.3809
O175       O    0.5548006966    0.4849309971    0.4849309971         -1.3748
O176       O    0.5150690029    0.5150690029    0.5548006966         -1.3795
O177       O    0.5150690029    0.5548006966    0.5150690029         -1.3786
O178       O    0.4849309971    0.5548006966    0.4849309971         -1.3765
C179       C    0.4344790977    0.5000000000    0.5000000000          0.1414
C180       C    0.5000000000    0.4344790977    0.5000000000          0.1463
C181       C    0.5000000000    0.5000000000    0.4344790977          0.1359
C182       C    0.5655209023    0.5000000000    0.5000000000          0.1397
C183       C    0.5000000000    0.5000000000    0.5655209023           0.151
C184       C    0.5000000000    0.5655209023    0.5000000000          0.1415
C1128      C    0.5000000000    0.5000000000   -0.4063161555          0.3661
C1129      C    0.4996137358    0.4780042985   -0.3956883494          0.3659
C1130      C    0.4987608031    0.4756475093   -0.3713821669          0.3657
C1131      C    0.4982900918    0.4950663572   -0.3560663668          0.3657
C1132      C    0.4986924238    0.5170775679   -0.3673528321           0.366
C1133      C    0.4995091676    0.5195067034   -0.3916635051          0.3662
C1134      C    0.4975145146    0.4926197682   -0.3311683119          0.3656
H1135      H    0.4986017109    0.4569155177   -0.3650456994          0.3656
H1136      H    0.4999924513    0.4614164916   -0.4066874263          0.3659
H1137      H    0.4997936583    0.5378486194   -0.3993197444          0.3663
H1138      H    0.4983548841    0.5341783950   -0.3574867794           0.366
C1139      C    0.4968201191    0.4706247969   -0.3198896264          0.3651
C1140      C    0.4962215539    0.4682890735   -0.2955580843          0.3651
C1141      C    0.4963137310    0.4877126934   -0.2807784934          0.3656
C1142      C    0.4969193119    0.5096546718   -0.2914361008           0.366
C1143      C    0.4974812245    0.5120080232   -0.3157863929           0.366
C1144      C    0.4961727042    0.4837732449   -0.2529980480           0.366
H1145      H    0.4958022363    0.4500266024   -0.2877067636          0.3648
H1146      H    0.4966992450    0.4534853121   -0.3297485330          0.3647
H1147      H    0.4980447136    0.5307043846   -0.3221659224          0.3664
H1148      H    0.4971078491    0.5261556811   -0.2804201121          0.3665
C1149      C    0.4933210224    0.5066585304   -0.2363720194          0.3642
N1150      N    0.4935517817    0.4995815921   -0.2100536649          0.3648
N1151      N    0.4831131828    0.4829569247   -0.2148776056          0.3562
N1152      N    0.4882137969    0.4740259893   -0.2372279416          0.3598
C1153      C    0.4948162704    0.5002694036   -0.1843290953          0.3664
H1154      H    0.5087661787    0.5189532320   -0.2396662071         -0.6233
H1155      H    0.4765259962    0.5167501001   -0.2409435080          0.3505
H1156      H    0.5125880388    0.4735335228   -0.2478268648         -0.6207
C1157      C    0.4973252697    0.4999329018   -0.1627320301         -0.6312
C1158      C    0.5035255597    0.4969573004   -0.1364349759         -0.6256
C1159      C    0.4925619526    0.5142432159   -0.1170097878           0.366
C1160      C    0.5000000000    0.5000000000   -0.0936838445         -0.6276
N1161      N    0.4941199221    0.4744912612   -0.1003186270         -0.6327
N1162      N    0.4977343751    0.4723834504   -0.1268648422         -0.6303
H1163      H    0.5118282371    0.4605017288   -0.1294400562          -0.619
H1164      H    0.4758690186    0.4714187820   -0.0981273317          0.3525
H1165      H    0.5005592070    0.5325573049   -0.1176464161         -0.6274
H1166      H    0.5198386866    0.5015240981   -0.0915379459         -0.6115
H1167      H    0.4726724019    0.5154961317   -0.1187529639          0.3498
H1168      H    0.5233847941    0.4991610494   -0.1353367866         -0.6095
C1087      C    0.5000000000    0.5000000000    0.4063161555          0.3661
C1088      C    0.4863684028    0.5172667206    0.3956883494          0.3659
C1089      C    0.4842621085    0.5186252029    0.3713821669          0.3657
C1090      C    0.4956508873    0.5028896082    0.3560663668          0.3657
C1091      C    0.5093046637    0.4856202811    0.3673528321           0.366
C1092      C    0.5114259894    0.4841823150    0.3916635051          0.3662
C1093      C    0.4935517426    0.5043663984    0.3311683119          0.3656
H1094      H    0.4727883065    0.5334327918    0.3650456994          0.3656
H1095      H    0.4766213795    0.5306940919    0.4066874263          0.3659
H1096      H    0.5227632689    0.4697610490    0.3993197444          0.3663
H1097      H    0.5193952188    0.4718096723    0.3574867794           0.366
C1098      C    0.4796754254    0.5214458823    0.3198896264          0.3651
C1099      C    0.4777842776    0.5229416912    0.2955580843          0.3651
C1100      C    0.4896238048    0.5075432788    0.2807784934          0.3656
C1101      C    0.5033973559    0.4904521574    0.2914361008           0.366
C1102      C    0.5052700198    0.4889201199    0.3157863929           0.366
C1103      C    0.4871252102    0.5105922406    0.2529980480           0.366
H1104      H    0.4663878494    0.5372180738    0.2877067636          0.3648
H1105      H    0.4691967194    0.5350095569    0.3297485330          0.3647
H1106      H    0.5170439934    0.4743858503    0.3221659224          0.3664
H1107      H    0.5135431303    0.4774374688    0.2804201121          0.3665
C1108      C    0.4987194417    0.4906562887    0.2363720194          0.3642
N1109      N    0.4946160682    0.4964267854    0.2100536649          0.3648
N1110      N    0.4762400050    0.5033307128    0.2148776056          0.3562
N1111      N    0.4748882029    0.5135263247    0.2372279416          0.3598
C1112      C    0.4960388022    0.4966455191    0.1843290953          0.3664
H1113      H    0.5184559828    0.4902302716    0.2396662071         -0.6233
H1114      H    0.4914697509    0.4724531389    0.2409435080          0.3505
H1115      H    0.4939830566    0.5286832622    0.2478268648         -0.6207
C1116      C    0.4978312261    0.4984331229    0.1627320301         -0.6312
C1117      C    0.5009619170    0.5045565676    0.1364349759         -0.6256
C1118      C    0.5027100458    0.4841617741    0.1170097878           0.366
C1119      C    0.5000000000    0.5000000000    0.0936838445         -0.6276
N1120      N    0.4798692112    0.5167338703    0.1003186270         -0.6327
N1121      N    0.4814681802    0.5206004496    0.1268648422         -0.6303
H1122      H    0.4854842962    0.5385916436    0.1294400562          -0.619
H1123      H    0.4634868171    0.5081226699    0.0981273317          0.3525
H1124      H    0.5201670682    0.4744347858    0.1176464161         -0.6274
H1125      H    0.5167077431    0.5108049842    0.0915379459         -0.6115
H1126      H    0.4876440563    0.4711164689    0.1187529639          0.3498
H1127      H    0.5180977188    0.5148332400    0.1353367866         -0.6095
C1046      C    0.5000000000    0.5936838445    0.5000000000          0.3661
C1047      C    0.5165348067    0.6043116506    0.4854893055          0.3659
C1048      C    0.5188523996    0.6286178331    0.4845349931          0.3657
C1049      C    0.5048007346    0.6439336332    0.4979463290          0.3657
C1050      C    0.4882436436    0.6326471679    0.5124555677           0.366
C1051      C    0.4858968648    0.6083364949    0.5134853243          0.3662
C1052      C    0.5071327348    0.6688316881    0.4968743717          0.3656
H1053      H    0.5328195173    0.6349543006    0.4720517064          0.3656
H1054      H    0.5285536252    0.5933125737    0.4740504786          0.3659
H1055      H    0.4721340147    0.6006802556    0.5256134229          0.3663
H1056      H    0.4758175344    0.6425132206    0.5242090364           0.366
C1057      C    0.5238742810    0.6801103736    0.4825921596          0.3651
C1058      C    0.5260051742    0.7044419157    0.4814638076          0.3651
C1059      C    0.5115713235    0.7192215066    0.4944618637          0.3656
C1060      C    0.4949287332    0.7085638992    0.5087741427           0.366
C1061      C    0.4928094530    0.6842136071    0.5099414730           0.366
C1062      C    0.5145810524    0.7470019520    0.4919161466           0.366
H1063      H    0.5397999397    0.7122932364    0.4694889120          0.3648
H1064      H    0.5366373684    0.6702514670    0.4711518734          0.3647
H1065      H    0.4785966611    0.6778340776    0.5221015715          0.3664
H1066      H    0.4825925469    0.7195798879    0.5197348618          0.3665
C1067      C    0.4995661931    0.7636279806    0.5094210711          0.3642
N1068      N    0.5046472999    0.7899463351    0.5044896757          0.3648
N1069      N    0.5239701940    0.7851223944    0.5010299545          0.3562
N1070      N    0.5271471537    0.7627720584    0.4912480939          0.3598
C1071      C    0.5032877563    0.8156709047    0.5040167510          0.3664
H1072      H    0.4800792002    0.7603337929    0.5062635956         -0.6233
H1073      H    0.5033972870    0.7590564920    0.5286365701          0.3505
H1074      H    0.5111149971    0.7521731352    0.4728819253         -0.6207
C1075      C    0.5018489367    0.8372679699    0.5019339383         -0.6312
C1076      C    0.4998796992    0.8635650241    0.4953445602         -0.6256
C1077      C    0.4944647903    0.8829902122    0.5150849330           0.366
C1078      C    0.5000000000    0.9063161555    0.5000000000         -0.6276
N1079      N    0.5228298442    0.8996813730    0.4871910467         -0.6327
N1080      N    0.5219580060    0.8731351578    0.4830987325         -0.6303
H1081      H    0.5212685455    0.8705599438    0.4646776333          -0.619
H1082      H    0.5373805938    0.9018726683    0.4986283232          0.3525
H1083      H    0.4755341576    0.8823535839    0.5214875167         -0.6274
H1084      H    0.4855268211    0.9084620541    0.4863463025         -0.6115
H1085      H    0.5069174290    0.8812470361    0.5306443614          0.3498
H1086      H    0.4848898134    0.8646632134    0.4821328599         -0.6095
C1005      C    0.5000000000    1.4063161555    0.5000000000          0.3661
C1006      C    0.4880267008    1.3956883494    0.5184553567          0.3659
C1007      C    0.4874167460    1.3713821669    0.5208863863          0.3657
C1008      C    0.4986604467    1.3560663668    0.5050468023          0.3657
C1009      C    0.5106290902    1.3673528321    0.4865696045           0.366
C1010      C    0.5113094890    1.3916635051    0.4840988097          0.3662
C1011      C    0.4979361565    1.3311683119    0.5075090618          0.3656
H1012      H    0.4770791868    1.3650456994    0.5365084121          0.3656
H1013      H    0.4784415807    1.4066874263    0.5319987770          0.3659
H1014      H    0.5213250472    1.3993197444    0.4687301594          0.3663
H1015      H    0.5204667979    1.3574867794    0.4725777596           0.366
C1016      C    0.4862187768    1.3198896264    0.5261360305          0.3651
C1017      C    0.4854096670    1.2955580843    0.5284074233          0.3651
C1018      C    0.4961892715    1.2807784934    0.5122492788          0.3656
C1019      C    0.5079506806    1.2914361008    0.4937158927           0.366
C1020      C    0.5088000363    1.3157863929    0.4914503676           0.366
C1021      C    0.4941044209    1.2529980480    0.5155948043           0.366
H1022      H    0.4755503136    1.2877067636    0.5437855515          0.3648
H1023      H    0.4767395929    1.3297485330    0.5404161432          0.3647
H1024      H    0.5187823438    1.3221659224    0.4756318663          0.3664
H1025      H    0.5170169065    1.2804201121    0.4799274046          0.3665
C1026      C    0.5092599150    1.2363720194    0.4982114968          0.3642
N1027      N    0.5051131965    1.2100536649    0.5039509246          0.3648
N1028      N    0.5044775038    1.2148776056    0.5235708076          0.3562
N1029      N    0.4952563453    1.2372279416    0.5281258165          0.3598
C1030      C    0.5044490702    1.1843290953    0.5026738371          0.3664
H1031      H    0.5033239681    1.2396662071    0.4793839351         -0.6233
H1032      H    0.5288271065    1.2409435080    0.4992301712          0.3505
H1033      H    0.4747692768    1.2478268648    0.5149111952         -0.6207
C1034      C    0.5021804617    1.1627320301    0.5015505712         -0.6312
C1035      C    0.4953759113    1.1364349759    0.5005526264         -0.6256
C1036      C    0.5141285082    1.1170097878    0.4923463078           0.366
C1037      C    0.5000000000    1.0936838445    0.5000000000         -0.6276
N1038      N    0.4906188607    1.1003186270    0.5244390118         -0.6327
N1039      N    0.4864435770    1.1268648422    0.5241667181         -0.6303
H1040      H    0.4681157364    1.1294400562    0.5261421948          -0.619
H1041      H    0.5040357993    1.0981273317    0.5371873986          0.3525
H1042      H    0.5177328676    1.1176464161    0.4726899977         -0.6274
H1043      H    0.4844010213    1.0915379459    0.4876481488         -0.6115
H1044      H    0.5313217635    1.1187529639    0.5024238074          0.3498
H1045      H    0.4801397570    1.1353367866    0.4876257047         -0.6095
C964       C    0.5000000000    0.5936838445    0.0000000000          0.3661
C965       C    0.4834454524    0.6043116506    0.0144881689          0.3659
C966       C    0.4811265623    0.6286178331    0.0154393251          0.3657
C967       C    0.4951964738    0.6439336332    0.0020471329          0.3657
C968       C    0.5117733037    0.6326471679   -0.0124395499           0.366
C969       C    0.5141214823    0.6083364949   -0.0134661104          0.3662
C970       C    0.4928630162    0.6688316881    0.0031159142          0.3656
H971       H    0.4671424616    0.6349543006    0.0279035840          0.3656
H972       H    0.4714110711    0.5933125737    0.0259106217          0.3659
H973       H    0.5279008321    0.6006802556   -0.0255754597          0.3663
H974       H    0.5242154037    0.6425132206   -0.0241760897           0.366
C975       C    0.4761020404    0.6801103736    0.0173753195          0.3651
C976       C    0.4739696130    0.7044419157    0.0185007693          0.3651
C977       C    0.4884211471    0.7192215066    0.0055223769          0.3656
C978       C    0.5050832081    0.7085638992   -0.0087672300           0.366
C979       C    0.5072040757    0.6842136071   -0.0099316739           0.366
C980       C    0.4854079550    0.7470019520    0.0080639939           0.366
H981       H    0.4601585565    0.7122932364    0.0304568722          0.3648
H982       H    0.4633233889    0.6702514670    0.0287982182          0.3647
H983       H    0.5214334102    0.6778340776   -0.0220724104          0.3664
H984       H    0.5174343059    0.7195798879   -0.0197111433          0.3665
C985       C    0.5004466332    0.7636279806   -0.0094204718          0.3642
N986       N    0.4953588171    0.7899463351   -0.0044959989          0.3648
N987       N    0.4760312304    0.7851223944   -0.0010625889          0.3562
N988       N    0.4728409558    0.7627720584    0.0087149373          0.3598
C989       C    0.4967177155    0.8156709047   -0.0040212236          0.3664
H990       H    0.5199293092    0.7603337929   -0.0062364677         -0.6233
H991       H    0.4966417047    0.7590564920   -0.0286411690          0.3505
H992       H    0.4888480921    0.7521731352    0.0271029166         -0.6207
C993       C    0.4981536981    0.8372679699   -0.0019364538         -0.6312
C994       C    0.5001139623    0.8635650241    0.0046555993         -0.6256
C995       C    0.5055557426    0.8829902122   -0.0150773828           0.366
C996       C    0.5000000000    0.9063161555    0.0000000000         -0.6276
N997       N    0.4771527376    0.8996813730    0.0127778587         -0.6327
N998       N    0.4780190034    0.8731351578    0.0168713561         -0.6303
H999       H    0.4786833830    0.8705599438    0.0352933769          -0.619
H1000      H    0.4626175733    0.9018726683    0.0013207820          0.3525
H1001      H    0.5244950749    0.8823535839   -0.0214541866         -0.6274
H1002      H    0.5144545760    0.9084620541    0.0136733901         -0.6115
H1003      H    0.4931242996    0.8812470361   -0.0306537511          0.3498
H1004      H    0.5150858465    0.8646632134    0.0178876960         -0.6095
C923       C    0.5000000000    1.4063161555    0.0000000000          0.3661
C924       C    0.5219978485    1.3956883494   -0.0002339803          0.3659
C925       C    0.5243604860    1.3713821669   -0.0010705767          0.3657
C926       C    0.5049453621    1.3560663668   -0.0016757119          0.3657
C927       C    0.4829318936    1.3673528321   -0.0014257716           0.366
C928       C    0.4804971621    1.3916635051   -0.0006258642          0.3662
C929       C    0.5073972617    1.3311683119   -0.0024343330          0.3656
H930       H    0.5430931301    1.3650456994   -0.0010999848          0.3656
H931       H    0.5385826360    1.4066874263    0.0002595623          0.3659
H932       H    0.4621537160    1.3993197444   -0.0004683600          0.3663
H933       H    0.4658338131    1.3574867794   -0.0018816910           0.366
C934       C    0.5293965133    1.3198896264   -0.0029764423          0.3651
C935       C    0.5317363245    1.2955580843   -0.0035588231          0.3651
C936       C    0.5123125319    1.2807784934   -0.0036011165          0.3656
C937       C    0.4903668870    1.2914361008   -0.0031474528           0.366
C938       C    0.4880097018    1.3157863929   -0.0026018458           0.366
C939       C    0.5162528623    1.2529980480   -0.0037148674           0.366
H940       H    0.5500012608    1.2877067636   -0.0038517009          0.3648
H941       H    0.5465364241    1.3297485330   -0.0029786580          0.3647
H942       H    0.4693098875    1.3221659224   -0.0021678038          0.3664
H943       H    0.4738649678    1.2804201121   -0.0030731555          0.3665
C944       C    0.4933878672    1.2363720194   -0.0067249141          0.3642
N945       N    0.5004630385    1.2100536649   -0.0064451672          0.3648
N946       N    0.5171595731    1.2148776056   -0.0167684245          0.3562
N947       N    0.5260549833    1.2372279416   -0.0116061045          0.3598
C948       C    0.4997664895    1.1843290953   -0.0051854704          0.3664
H949       H    0.4809865345    1.2396662071    0.0086347568         -0.6233
H950       H    0.4834128101    1.2409435080   -0.0235894010          0.3505
H951       H    0.5263786969    1.2478268648    0.0127709626         -0.6207
C952       C    0.5000856135    1.1627320301   -0.0026742017         -0.6312
C953       C    0.5030182195    1.1364349759    0.0035465396         -0.6256
C954       C    0.4858086184    1.1170097878   -0.0075364739           0.366
C955       C    0.5000000000    1.0936838445    0.0000000000         -0.6276
N956       N    0.5255488349    1.1003186270   -0.0057033419         -0.6327
N957       N    0.5276315726    1.1268648422   -0.0020743832         -0.6303
H958       H    0.5394154386    1.1294400562    0.0121013973          -0.619
H959       H    0.5287475902    1.0981273317   -0.0239325375          0.3525
H960       H    0.4674396039    1.1176464161    0.0003338017         -0.6274
H961       H    0.4983385966    1.0915379459    0.0198276600         -0.6115
H962       H    0.4846934266    1.1187529639   -0.0274342218          0.3498
H963       H    0.5006770392    1.1353367866    0.0233900417         -0.6095
C882       C    0.5000000000    1.0000000000   -0.0936838445          0.3661
C883       C    0.4997540021    1.0219977174   -0.1043116506          0.3659
C884       C    0.4989161151    1.0243598975   -0.1286178331          0.3657
C885       C    0.4983215866    1.0049444459   -0.1439336332          0.3657
C886       C    0.4985835531    0.9829311172   -0.1326471679           0.366
C887       C    0.4993847905    0.9804968231   -0.1083364949          0.3662
C888       C    0.4975616261    1.0073959307   -0.1688316881          0.3656
H889       H    0.4988764732    1.0430925228   -0.1349543006          0.3656
H890       H    0.5002384842    1.0385827721   -0.0933125737          0.3659
H891       H    0.4995523159    0.9621534658   -0.1006802556          0.3663
H892       H    0.4981369746    0.9658327902   -0.1425132206           0.366
C893       C    0.4970074985    1.0293948828   -0.1801103736          0.3651
C894       C    0.4964238395    1.0317343755   -0.2044419157          0.3651
C895       C    0.4963921576    1.0123105627   -0.2192215066          0.3656
C896       C    0.4968578103    0.9903651689   -0.2085638992           0.366
C897       C    0.4974047050    0.9880082822   -0.1842136071           0.366
C898       C    0.4962762540    1.0162508304   -0.2470019520           0.366
H899       H    0.4961209835    1.0499991492   -0.2122932364          0.3648
H900       H    0.4969959191    1.0465347899   -0.1702514670          0.3647
H901       H    0.4978489628    0.9693087078   -0.1778340776          0.3664
H902       H    0.4969411228    0.9738632928   -0.2195798879          0.3665
C903       C    0.4932786992    0.9933841943   -0.2636279806          0.3642
N904       N    0.4935545808    1.0004595173   -0.2899463351          0.3648
N905       N    0.4832222035    1.0171504098   -0.2851223944          0.3562
N906       N    0.4883796631    1.0260486388   -0.2627720584          0.3598
C907       C    0.4948146579    0.9997636566   -0.3156709047          0.3664
H908       H    0.5086451428    0.9809912546   -0.2603337929         -0.6233
H909       H    0.4764196643    0.9833999255   -0.2590564920          0.3505
H910       H    0.5127565498    1.0263856698   -0.2521731352         -0.6207
C911       C    0.4973257520    1.0000841526   -0.3372679699         -0.6312
C912       C    0.5035448902    1.0030201565   -0.3635650241         -0.6256
C913       C    0.4924712801    0.9858045033   -0.3829902122           0.366
C914       C    0.5000000000    1.0000000000   -0.4063161555         -0.6276
N915       N    0.4942827014    1.0255457153   -0.3996813730         -0.6327
N916       N    0.4979105217    1.0276304352   -0.3731351578         -0.6303
H917       H    0.5120798625    1.0394220438   -0.3705599438          -0.619
H918       H    0.4760517610    1.0287345113   -0.4018726683          0.3525
H919       H    0.5003515897    0.9674397911   -0.3823535839         -0.6274
H920       H    0.5198285647    0.9983494289   -0.4084620541         -0.6115
H921       H    0.4725741444    0.9846784414   -0.3812470361          0.3498
H922       H    0.5233896684    1.0006898173   -0.3646632134         -0.6095
C841       C    0.5000000000    1.0000000000    0.0936838445          0.3661
C842       C    0.5219925423    0.9994631887    0.1043116506          0.3659
C843       C    0.5243434382    0.9985941442    0.1286178331          0.3657
C844       C    0.5049218232    0.9982563621    0.1439336332          0.3657
C845       C    0.4829138820    0.9988093470    0.1326471679           0.366
C846       C    0.4804903940    0.9996426985    0.1083364949          0.3662
C847       C    0.5073630462    0.9974640566    0.1688316881          0.3656
H848       H    0.5430739020    0.9983068390    0.1349543006          0.3656
H849       H    0.5385825529    0.9997283551    0.0933125737          0.3659
H850       H    0.4621508548    1.0000527294    0.1006802556          0.3663
H851       H    0.4658111452    0.9985888670    0.1425132206           0.366
C852       C    0.5293527493    0.9966191262    0.1801103736          0.3651
C853       C    0.5316843209    0.9960045874    0.2044419157          0.3651
C854       C    0.5122617870    0.9962297132    0.2192215066          0.3656
C855       C    0.4903244677    0.9969854684    0.2085638992           0.366
C856       C    0.4879750175    0.9975634760    0.1842136071           0.366
C857       C    0.5162001779    0.9960617250    0.2470019520           0.366
H858       H    0.5499434941    0.9954602768    0.2122932364          0.3648
H859       H    0.5464910052    0.9963809386    0.1702514670          0.3647
H860       H    0.4692829512    0.9982549247    0.1778340776          0.3664
H861       H    0.4738251354    0.9972869473    0.2195798879          0.3665
C862       C    0.4932959093    0.9933667551    0.2636279806          0.3642
N863       N    0.5003742614    0.9935490689    0.2899463351          0.3648
N864       N    0.5169270891    0.9829969220    0.2851223944          0.3562
N865       N    0.5258927280    0.9880362861    0.2627720584          0.3598
C866       C    0.4996951211    0.9948182359    0.3156709047          0.3664
H867       H    0.4811072147    1.0088957045    0.2603337929         -0.6233
H868       H    0.4830896174    0.9766411972    0.2590564920          0.3505
H869       H    0.5265520198    1.0124065862    0.2521731352         -0.6207
C870       C    0.5000487886    0.9973248731    0.3372679699         -0.6312
C871       C    0.5030667601    1.0035046505    0.3635650241         -0.6256
C872       C    0.4857062058    0.9926596188    0.3829902122           0.366
C873       C    0.5000000000    1.0000000000    0.4063161555         -0.6276
N874       N    0.5254678933    0.9939454576    0.3996813730         -0.6327
N875       N    0.5276003949    0.9975453984    0.3731351578         -0.6303
H876       H    0.5395783078    1.0115576022    0.3705599438          -0.619
H877       H    0.5284153768    0.9756739511    0.4018726683          0.3525
H878       H    0.4674472854    1.0007820421    0.3823535839         -0.6274
H879       H    0.4986117294    1.0198486541    0.4084620541         -0.6115
H880       H    0.4843171794    0.9727791100    0.3812470361          0.3498
H881       H    0.5009989952    1.0233785039    0.3646632134         -0.6095
C800       C    0.9063161555    0.5000000000    0.5000000000          0.3661
C801       C    0.8956883494    0.5198563541    0.4905297683          0.3659
C802       C    0.8713821669    0.5223460809    0.4902413075          0.3657
C803       C    0.8560663668    0.5051781937    0.4993284893          0.3657
C804       C    0.8673528321    0.4853007900    0.5087912631           0.366
C805       C    0.8916635051    0.4827624703    0.5091443950          0.3662
C806       C    0.8311683119    0.5077137615    0.4989307285          0.3656
H807       H    0.8650456994    0.5391803585    0.4820242571          0.3656
H808       H    0.9066874263    0.5345317939    0.4827883066          0.3659
H809       H    0.8993197444    0.4662213107    0.5170751493          0.3663
H810       H    0.8574867794    0.4701478726    0.5167248191           0.366
C811       C    0.8198896264    0.5277069702    0.4897365697          0.3651
C812       C    0.7955580843    0.5300643301    0.4892298761          0.3651
C813       C    0.7807784934    0.5126409754    0.4978154580          0.3656
C814       C    0.7914361008    0.4927348249    0.5070654482           0.366
C815       C    0.8157863929    0.4903780465    0.5076128091           0.366
C816       C    0.7529980480    0.5162293275    0.4961836272           0.366
H817       H    0.7877067636    0.5465945626    0.4814552319          0.3648
H818       H    0.8297485330    0.5430990563    0.4821959971          0.3647
H819       H    0.8221659224    0.4733951865    0.5154520638          0.3664
H820       H    0.7804201121    0.4778839156    0.5142605401          0.3665
C821       C    0.7363720194    0.4970218640    0.5089484901          0.3642
N822       N    0.7100536649    0.5032520444    0.5055837972          0.3648
N823       N    0.7148776056    0.5227878537    0.5075063129          0.3562
N824       N    0.7372279416    0.5285039351    0.4989562085          0.3598
C825       C    0.6843290953    0.5020722247    0.5047591507          0.3664
H826       H    0.7396662071    0.4791266972    0.5006132907         -0.6233
H827       H    0.7409435080    0.4954859303    0.5284818869          0.3505
H828       H    0.7478268648    0.5180672859    0.4769239016         -0.6207
C829       C    0.6627320301    0.5012536833    0.5023636756         -0.6312
C830       C    0.6364349759    0.5011495833    0.4954871239         -0.6256
C831       C    0.6170097878    0.4905730662    0.5130125581           0.366
C832       C    0.5936838445    0.5000000000    0.5000000000         -0.6276
N833       N    0.6003186270    0.5254518689    0.4938784447         -0.6327
N834       N    0.6268648422    0.5257251493    0.4897032255         -0.6303
H835       H    0.6294400562    0.5300685255    0.4717882225          -0.619
H836       H    0.5981273317    0.5363461638    0.5088400606          0.3525
H837       H    0.6176464161    0.4706148769    0.5140287333         -0.6274
H838       H    0.5915379459    0.4897827820    0.4829264878         -0.6115
H839       H    0.6187529639    0.4983278302    0.5313708712          0.3498
H840       H    0.6353367866    0.4903149752    0.4786985275         -0.6095
C759       C    1.0936838445    0.5000000000    0.5000000000          0.3661
C760       C    1.1043116506    0.4808287667    0.5107899906          0.3659
C761       C    1.1286178331    0.4791601761    0.5126602192          0.3657
C762       C    1.1439336332    0.4964710975    0.5038485665          0.3657
C763       C    1.1326471679    0.5156483441    0.4930370688           0.366
C764       C    1.1083364949    0.5173977878    0.4911643127          0.3662
C765       C    1.1688316881    0.4946867376    0.5056933910          0.3656
H766       H    1.1349543006    0.4627528603    0.5216997330          0.3656
H767       H    1.0933125737    0.4660526790    0.5183375728          0.3659
H768       H    1.1006802556    0.5334022866    0.4821997804          0.3663
H769       H    1.1425132206    0.5308562926    0.4852095201           0.366
C770       C    1.1801103736    0.4756625392    0.5167541697          0.3651
C771       C    1.2044419157    0.4738916357    0.5183905635          0.3651
C772       C    1.2192215066    0.4909393292    0.5090813395          0.3656
C773       C    1.2085638992    0.5099590929    0.4981238886           0.366
C774       C    1.1842136071    0.5117629215    0.4965113715           0.366
C775       C    1.2470019520    0.4875398794    0.5110770560           0.366
H776       H    1.2122932364    0.4580210990    0.5274359902          0.3648
H777       H    1.1702514670    0.4606383657    0.5250034580          0.3647
H778       H    1.1778340776    0.5279467571    0.4871329433          0.3664
H779       H    1.2195798879    0.5243893042    0.4901183993          0.3665
C780       C    1.2636279806    0.5090322274    0.5027136022          0.3642
N781       N    1.2899463351    0.5026953617    0.5058727855          0.3648
N782       N    1.2851223944    0.4930261189    0.5229563933          0.3562
N783       N    1.2627720584    0.4827442038    0.5227112595          0.3598
C784       C    1.3156709047    0.5026998344    0.5044333424          0.3664
H785       H    1.2603337929    0.5125127867    0.4832817147         -0.6233
H786       H    1.2590564920    0.5258914098    0.5126976221          0.3505
H787       H    1.2521731352    0.4707307234    0.5014975262         -0.6207
C788       C    1.3372679699    0.5012117159    0.5023854620         -0.6312
C789       C    1.3635650241    0.4956476430    0.4983433223         -0.6256
C790       C    1.3829902122    0.5160668757    0.4997780673           0.366
C791       C    1.4063161555    0.5000000000    0.5000000000         -0.6276
N792       N    1.3996813730    0.4803476262    0.5172932148         -0.6327
N793       N    1.3731351578    0.4767756759    0.5151141535         -0.6303
H794       H    1.3705599438    0.4596245961    0.5083574743          -0.619
H795       H    1.4018726683    0.4863150096    0.5348125168          0.3525
H796       H    1.3823535839    0.5283825734    0.4840400393         -0.6274
H797       H    1.4084620541    0.4919157929    0.4818191871         -0.6115
H798       H    1.3812470361    0.5266188346    0.5166842847          0.3498
H799       H    1.3646632134    0.4881517211    0.4798215282         -0.6095
C718       C    0.5936838445    0.5000000000    0.0000000000          0.3661
C719       C    0.6043116506    0.5020462619    0.0219037188          0.3659
C720       C    0.6286178331    0.5030747421    0.0241893649          0.3657
C721       C    0.6439336332    0.5020776107    0.0047904228          0.3657
C722       C    0.6326471679    0.5000141556   -0.0171275475           0.366
C723       C    0.6083364949    0.4990162975   -0.0194880661          0.3662
C724       C    0.6688316881    0.5030357379    0.0071714541          0.3656
H725       H    0.6349543006    0.5046480075    0.0428558497          0.3656
H726       H    0.5933125737    0.5029213280    0.0384727568          0.3659
H727       H    0.6006802556    0.4973474499   -0.0377561194          0.3663
H728       H    0.6425132206    0.4990592883   -0.0342050311           0.366
C729       C    0.6801103736    0.5053891961    0.0290511750          0.3651
C730       C    0.7044419157    0.5061624443    0.0313350251          0.3651
C731       C    0.7192215066    0.5046036715    0.0119738336          0.3656
C732       C    0.7085638992    0.5023427763   -0.0098597528           0.366
C733       C    0.6842136071    0.5016047448   -0.0121639486           0.366
C734       C    0.7470019520    0.5050418001    0.0158913821           0.366
H735       H    0.7122932364    0.5079597340    0.0495136781          0.3648
H736       H    0.6702514670    0.5068040874    0.0461325868          0.3647
H737       H    0.6778340776    0.4996309281   -0.0307643651          0.3664
H738       H    0.7195798879    0.5009086322   -0.0262994027          0.3665
C739       C    0.7636279806    0.5061570569   -0.0071439078          0.3642
N740       N    0.7899463351    0.5064614022   -0.0000697520          0.3648
N741       N    0.7851223944    0.5181256758    0.0157191248          0.3562
N742       N    0.7627720584    0.5137140857    0.0250097514          0.3598
C743       C    0.8156709047    0.5051485814   -0.0006601061          0.3664
H744       H    0.7603337929    0.4898275190   -0.0182370920         -0.6233
H745       H    0.7590564920    0.5221420135   -0.0184750086          0.3505
H746       H    0.7521731352    0.4894466392    0.0273415382         -0.6207
C747       C    0.8372679699    0.5026721594   -0.0001350873         -0.6312
C748       C    0.8635650241    0.4967142907    0.0033002586         -0.6256
C749       C    0.8829902122    0.5063411686   -0.0147642585           0.366
C750       C    0.9063161555    0.5000000000    0.0000000000         -0.6276
N751       N    0.8996813730    0.5077896894    0.0249918349         -0.6327
N752       N    0.8731351578    0.5043447385    0.0273665876         -0.6303
H753       H    0.8705599438    0.4911884235    0.0402787380          -0.619
H754       H    0.9018726683    0.5262205061    0.0266772441          0.3525
H755       H    0.8823535839    0.4969836839   -0.0324221013         -0.6274
H756       H    0.9084620541    0.4801028671   -0.0000215414         -0.6115
H757       H    0.8812470361    0.5260793021   -0.0175156420          0.3498
H758       H    0.8646632134    0.4767453419    0.0026025589         -0.6095
C677       C    1.4063161555    0.5000000000    0.0000000000          0.3661
C678       C    1.3956883494    0.4864936507   -0.0173648672          0.3659
C679       C    1.3713821669    0.4856782182   -0.0197348924          0.3657
C680       C    1.3560663668    0.4982341442   -0.0049138956          0.3657
C681       C    1.3673528321    0.5117377210    0.0124731306           0.366
C682       C    1.3916635051    0.5126267374    0.0148767568          0.3662
C683       C    1.3311683119    0.4973021262   -0.0073052677          0.3656
H684       H    1.3650456994    0.4740437083   -0.0344165477          0.3656
H685       H    1.4066874263    0.4757864253   -0.0300398065          0.3659
H686       H    1.3993197444    0.5239187753    0.0293334751          0.3663
H687       H    1.3574867794    0.5227349239    0.0255732736           0.366
C688       C    1.3198896264    0.4840360979   -0.0248629852          0.3651
C689       C    1.2955580843    0.4830358781   -0.0270569415          0.3651
C690       C    1.2807784934    0.4951566230   -0.0118788965          0.3656
C691       C    1.2914361008    0.5084585238    0.0055818188           0.366
C692       C    1.3157863929    0.5094983411    0.0077664901           0.366
C693       C    1.2529980480    0.4927935530   -0.0150340579           0.366
H694       H    1.2877067636    0.4718986640   -0.0415364491          0.3648
H695       H    1.3297485330    0.4733714781   -0.0382809743          0.3647
H696       H    1.3221659224    0.5207956852    0.0226742553          0.3664
H697       H    1.2804201121    0.5186696911    0.0185452642          0.3665
C698       C    1.2363720194    0.5093788645    0.0009907923          0.3642
N699       N    1.2100536649    0.5047569304   -0.0043733508          0.3648
N700       N    1.2148776056    0.5024472316   -0.0238671755          0.3562
N701       N    1.2372279416    0.4928706104   -0.0276176686          0.3598
C702       C    1.1843290953    0.5042043475   -0.0030441899          0.3664
H703       H    1.2396662071    0.5050732581    0.0202566766         -0.6233
H704       H    1.2409435080    0.5287874684   -0.0016959859          0.3505
H705       H    1.2478268648    0.4735875199   -0.0127009460         -0.6207
C706       C    1.1627320301    0.5020400070   -0.0017312007         -0.6312
C707       C    1.1364349759    0.4953456037   -0.0001555216         -0.6256
C708       C    1.1170097878    0.5147307788    0.0064185593           0.366
C709       C    1.0936838445    0.5000000000    0.0000000000         -0.6276
N710       N    1.1003186270    0.4885650859   -0.0235481169         -0.6327
N711       N    1.1268648422    0.4844283349   -0.0229200810         -0.6303
H712       H    1.1294400562    0.4659987285   -0.0233223959          -0.619
H713       H    1.0981273317    0.5008437352   -0.0373962351          0.3525
H714       H    1.1176464161    0.5200014011    0.0256950340         -0.6274
H715       H    1.0915379459    0.4855134095    0.0136394670         -0.6115
H716       H    1.1187529639    0.5310001376   -0.0050910883          0.3498
H717       H    1.1353367866    0.4812696451    0.0140259131         -0.6095
C636       C    1.0000000000    0.5000000000   -0.0936838445          0.3661
C637       C    0.9780074577    0.4994631887   -0.1043116506          0.3659
C638       C    0.9756565618    0.4985941442   -0.1286178331          0.3657
C639       C    0.9950781768    0.4982563621   -0.1439336332          0.3657
C640       C    1.0170861180    0.4988093470   -0.1326471679           0.366
C641       C    1.0195096060    0.4996426985   -0.1083364949          0.3662
C642       C    0.9926369538    0.4974640566   -0.1688316881          0.3656
H643       H    0.9569260980    0.4983068390   -0.1349543006          0.3656
H644       H    0.9614174471    0.4997283551   -0.0933125737          0.3659
H645       H    1.0378491452    0.5000527294   -0.1006802556          0.3663
H646       H    1.0341888548    0.4985888670   -0.1425132206           0.366
C647       C    0.9706472507    0.4966191262   -0.1801103736          0.3651
C648       C    0.9683156791    0.4960045874   -0.2044419157          0.3651
C649       C    0.9877382130    0.4962297132   -0.2192215066          0.3656
C650       C    1.0096755323    0.4969854684   -0.2085638992           0.366
C651       C    1.0120249825    0.4975634760   -0.1842136071           0.366
C652       C    0.9837998221    0.4960617250   -0.2470019520           0.366
H653       H    0.9500565059    0.4954602768   -0.2122932364          0.3648
H654       H    0.9535089948    0.4963809386   -0.1702514670          0.3647
H655       H    1.0307170488    0.4982549247   -0.1778340776          0.3664
H656       H    1.0261748646    0.4972869473   -0.2195798879          0.3665
C657       C    1.0067040907    0.4933667551   -0.2636279806          0.3642
N658       N    0.9996257386    0.4935490689   -0.2899463351          0.3648
N659       N    0.9830729109    0.4829969220   -0.2851223944          0.3562
N660       N    0.9741072720    0.4880362861   -0.2627720584          0.3598
C661       C    1.0003048789    0.4948182359   -0.3156709047          0.3664
H662       H    1.0188927853    0.5088957045   -0.2603337929         -0.6233
H663       H    1.0169103826    0.4766411972   -0.2590564920          0.3505
H664       H    0.9734479802    0.5124065862   -0.2521731352         -0.6207
C665       C    0.9999512114    0.4973248731   -0.3372679699         -0.6312
C666       C    0.9969332399    0.5035046505   -0.3635650241         -0.6256
C667       C    1.0142937942    0.4926596188   -0.3829902122           0.366
C668       C    1.0000000000    0.5000000000   -0.4063161555         -0.6276
N669       N    0.9745321067    0.4939454576   -0.3996813730         -0.6327
N670       N    0.9723996051    0.4975453984   -0.3731351578         -0.6303
H671       H    0.9604216922    0.5115576022   -0.3705599438          -0.619
H672       H    0.9715846232    0.4756739511   -0.4018726683          0.3525
H673       H    1.0325527146    0.5007820421   -0.3823535839         -0.6274
H674       H    1.0013882706    0.5198486541   -0.4084620541         -0.6115
H675       H    1.0156828206    0.4727791100   -0.3812470361          0.3498
H676       H    0.9990010048    0.5233785039   -0.3646632134         -0.6095
C595       C    1.0000000000    0.5000000000    0.4063161555          0.3661
C596       C    0.9863684028    0.5172667206    0.3956883494          0.3659
C597       C    0.9842621085    0.5186252029    0.3713821669          0.3657
C598       C    0.9956508873    0.5028896082    0.3560663668          0.3657
C599       C    1.0093046637    0.4856202811    0.3673528321           0.366
C600       C    1.0114259894    0.4841823150    0.3916635051          0.3662
C601       C    0.9935517426    0.5043663984    0.3311683119          0.3656
H602       H    0.9727883065    0.5334327918    0.3650456994          0.3656
H603       H    0.9766213795    0.5306940919    0.4066874263          0.3659
H604       H    1.0227632689    0.4697610490    0.3993197444          0.3663
H605       H    1.0193952188    0.4718096723    0.3574867794           0.366
C606       C    0.9796754254    0.5214458823    0.3198896264          0.3651
C607       C    0.9777842776    0.5229416912    0.2955580843          0.3651
C608       C    0.9896238048    0.5075432788    0.2807784934          0.3656
C609       C    1.0033973559    0.4904521574    0.2914361008           0.366
C610       C    1.0052700198    0.4889201199    0.3157863929           0.366
C611       C    0.9871252102    0.5105922406    0.2529980480           0.366
H612       H    0.9663878494    0.5372180738    0.2877067636          0.3648
H613       H    0.9691967194    0.5350095569    0.3297485330          0.3647
H614       H    1.0170439934    0.4743858503    0.3221659224          0.3664
H615       H    1.0135431303    0.4774374688    0.2804201121          0.3665
C616       C    0.9987194417    0.4906562887    0.2363720194          0.3642
N617       N    0.9946160682    0.4964267854    0.2100536649          0.3648
N618       N    0.9762400050    0.5033307128    0.2148776056          0.3562
N619       N    0.9748882029    0.5135263247    0.2372279416          0.3598
C620       C    0.9960388022    0.4966455191    0.1843290953          0.3664
H621       H    1.0184559828    0.4902302716    0.2396662071         -0.6233
H622       H    0.9914697509    0.4724531389    0.2409435080          0.3505
H623       H    0.9939830566    0.5286832622    0.2478268648         -0.6207
C624       C    0.9978312261    0.4984331229    0.1627320301         -0.6312
C625       C    1.0009619170    0.5045565676    0.1364349759         -0.6256
C626       C    1.0027100458    0.4841617741    0.1170097878           0.366
C627       C    1.0000000000    0.5000000000    0.0936838445         -0.6276
N628       N    0.9798692112    0.5167338703    0.1003186270         -0.6327
N629       N    0.9814681802    0.5206004496    0.1268648422         -0.6303
H630       H    0.9854842962    0.5385916436    0.1294400562          -0.619
H631       H    0.9634868171    0.5081226699    0.0981273317          0.3525
H632       H    1.0201670682    0.4744347858    0.1176464161         -0.6274
H633       H    1.0167077431    0.5108049842    0.0915379459         -0.6115
H634       H    0.9876440563    0.4711164689    0.1187529639          0.3498
H635       H    1.0180977188    0.5148332400    0.1353367866         -0.6095
C554       C    1.0000000000   -0.0936838445    0.5000000000          0.3661
C555       C    1.0006094725   -0.1043116506    0.5219906486          0.3659
C556       C    1.0014862798   -0.1286178331    0.5243386603          0.3657
C557       C    1.0017598903   -0.1439336332    0.5049160353          0.3657
C558       C    1.0011341934   -0.1326471679    0.4829100413           0.366
C559       C    1.0002928391   -0.1083364949    0.4804893199          0.3662
C560       C    1.0025602573   -0.1688316881    0.5073546272          0.3656
H561       H    1.0018354695   -0.1349543006    0.5430680727          0.3656
H562       H    1.0003991216   -0.0933125737    0.5385814447          0.3659
H563       H    0.9998222160   -0.1006802556    0.4621512356          0.3663
H564       H    1.0012981642   -0.1425132206    0.4658066694           0.366
C565       C    1.0034778379   -0.1801103736    0.5293414186          0.3651
C566       C    1.0041000769   -0.2044419157    0.5316709470          0.3651
C567       C    1.0038107796   -0.2192215066    0.5122492629          0.3656
C568       C    1.0029825469   -0.2085638992    0.4903145604           0.366
C569       C    1.0023967797   -0.1842136071    0.4879670328           0.366
C570       C    1.0039917795   -0.2470019520    0.5161870773           0.366
H571       H    1.0047047135   -0.2122932364    0.5499282220          0.3648
H572       H    1.0037726496   -0.1702514670    0.5464787939          0.3647
H573       H    1.0016435755   -0.1778340776    0.4692773530          0.3664
H574       H    1.0026265552   -0.2195798879    0.4738163142          0.3665
C575       C    1.0066110581   -0.2636279806    0.4932740294          0.3642
N576       N    1.0064521325   -0.2899463351    0.5003529452          0.3648
N577       N    1.0170589129   -0.2851223944    0.5168708180          0.3562
N578       N    1.0120491991   -0.2627720584    0.5258530581          0.3598
C579       C    1.0051807285   -0.3156709047    0.4996780021          0.3664
H580       H    0.9910419216   -0.2603337929    0.4811367095         -0.6233
H581       H    1.0233028028   -0.2590564920    0.4830125314          0.3505
H582       H    0.9876812104   -0.2521731352    0.5265928667         -0.6207
C583       C    1.0026752735   -0.3372679699    0.5000399496         -0.6312
C584       C    0.9965055013   -0.3635650241    0.5030783228         -0.6256
C585       C    1.0072931139   -0.3829902122    0.4856820309           0.366
C586       C    1.0000000000   -0.4063161555    0.5000000000         -0.6276
N587       N    1.0061386562   -0.3996813730    0.5254477498         -0.6327
N588       N    1.0025457808   -0.3731351578    0.5275921342         -0.6303
H589       H    0.9885732290   -0.3705599438    0.5396162785          -0.619
H590       H    1.0244198015   -0.4018726683    0.5283348475          0.3525
H591       H    0.9991104068   -0.3823535839    0.4674500470         -0.6274
H592       H    0.9801468674   -0.4084620541    0.4986773177         -0.6115
H593       H    1.0271689248   -0.3812470361    0.4842273262          0.3498
H594       H    0.9766249245   -0.3646632134    0.5010762331         -0.6095
C513       C    1.0000000000    0.0936838445    0.5000000000          0.3661
C514       C    1.0006094725    0.1043116506    0.4780093514          0.3659
C515       C    1.0014862798    0.1286178331    0.4756613397          0.3657
C516       C    1.0017598903    0.1439336332    0.4950839647          0.3657
C517       C    1.0011341934    0.1326471679    0.5170899587           0.366
C518       C    1.0002928391    0.1083364949    0.5195106801          0.3662
C519       C    1.0025602573    0.1688316881    0.4926453728          0.3656
H520       H    1.0018354695    0.1349543006    0.4569319273          0.3656
H521       H    1.0003991216    0.0933125737    0.4614185553          0.3659
H522       H    0.9998222160    0.1006802556    0.5378487644          0.3663
H523       H    1.0012981642    0.1425132206    0.5341933306           0.366
C524       C    1.0034778379    0.1801103736    0.4706585814          0.3651
C525       C    1.0041000769    0.2044419157    0.4683290530          0.3651
C526       C    1.0038107796    0.2192215066    0.4877507371          0.3656
C527       C    1.0029825469    0.2085638992    0.5096854396           0.366
C528       C    1.0023967797    0.1842136071    0.5120329672           0.366
C529       C    1.0039917795    0.2470019520    0.4838129227           0.366
H530       H    1.0047047135    0.2122932364    0.4500717780          0.3648
H531       H    1.0037726496    0.1702514670    0.4535212061          0.3647
H532       H    1.0016435755    0.1778340776    0.5307226470          0.3664
H533       H    1.0026265552    0.2195798879    0.5261836858          0.3665
C534       C    1.0066110581    0.2636279806    0.5067259706          0.3642
N535       N    1.0064521325    0.2899463351    0.4996470548          0.3648
N536       N    1.0170589129    0.2851223944    0.4831291820          0.3562
N537       N    1.0120491991    0.2627720584    0.4741469419          0.3598
C538       C    1.0051807285    0.3156709047    0.5003219979          0.3664
H539       H    0.9910419216    0.2603337929    0.5188632905         -0.6233
H540       H    1.0233028028    0.2590564920    0.5169874686          0.3505
H541       H    0.9876812104    0.2521731352    0.4734071333         -0.6207
C542       C    1.0026752735    0.3372679699    0.4999600504         -0.6312
C543       C    0.9965055013    0.3635650241    0.4969216772         -0.6256
C544       C    1.0072931139    0.3829902122    0.5143179691           0.366
C545       C    1.0000000000    0.4063161555    0.5000000000         -0.6276
N546       N    1.0061386562    0.3996813730    0.4745522502         -0.6327
N547       N    1.0025457808    0.3731351578    0.4724078658         -0.6303
H548       H    0.9885732290    0.3705599438    0.4603837215          -0.619
H549       H    1.0244198015    0.4018726683    0.4716651525          0.3525
H550       H    0.9991104068    0.3823535839    0.5325499530         -0.6274
H551       H    0.9801468674    0.4084620541    0.5013226823         -0.6115
H552       H    1.0271689248    0.3812470361    0.5157726738          0.3498
H553       H    0.9766249245    0.3646632134    0.4989237669         -0.6095
C472       C    0.5936838445   -0.0000000000    0.5000000000          0.3661
C473       C    0.6043116506   -0.0149081956    0.5161773232          0.3659
C474       C    0.6286178331   -0.0159185425    0.5184710427          0.3657
C475       C    0.6439336332   -0.0021697195    0.5047494141          0.3657
C476       C    0.6326471679    0.0127375622    0.4885497777           0.366
C477       C    0.6083364949    0.0138240401    0.4862287144          0.3662
C478       C    0.6688316881   -0.0032980265    0.5070546778          0.3656
H479       H    0.6349543006   -0.0287375356    0.5321306999          0.3656
H480       H    0.5933125737   -0.0266356951    0.5279146364          0.3659
H481       H    0.6006802556    0.0262829865    0.4727646335          0.3663
H482       H    0.6425132206    0.0247895074    0.4764129398           0.366
C483       C    0.6801103736   -0.0179828309    0.5234442316          0.3651
C484       C    0.7044419157   -0.0191626292    0.5255470772          0.3651
C485       C    0.7192215066   -0.0058176773    0.5114333334          0.3656
C486       C    0.7085638992    0.0088947806    0.4951434370           0.366
C487       C    0.6842136071    0.0101132635    0.4930531479           0.366
C488       C    0.7470019520   -0.0084357773    0.5143803142           0.366
H489       H    0.7122932364   -0.0314691933    0.5390467868          0.3648
H490       H    0.6702514670   -0.0297298744    0.5359255583          0.3647
H491       H    0.6778340776    0.0226151337    0.4791400358          0.3664
H492       H    0.7195798879    0.0201520252    0.4830772321          0.3665
C493       C    0.7636279806    0.0094288306    0.4997952475          0.3642
N494       N    0.7899463351    0.0043754235    0.5047550240          0.3648
N495       N    0.7851223944    0.0004471892    0.5239881435          0.3562
N496       N    0.7627720584   -0.0094089814    0.5269264718          0.3598
C497       C    0.8156709047    0.0039356745    0.5033843902          0.3664
H498       H    0.7603337929    0.0067458096    0.4802372839         -0.6233
H499       H    0.7590564920    0.0285455624    0.5040921352          0.3505
H500       H    0.7521731352   -0.0273801552    0.5104527623         -0.6207
C501       C    0.8372679699    0.0018884392    0.5018953843         -0.6312
C502       C    0.8635650241   -0.0046511420    0.4997666104         -0.6256
C503       C    0.8829902122    0.0152149810    0.4948329795           0.366
C504       C    0.9063161555   -0.0000000000    0.5000000000         -0.6276
N505       N    0.8996813730   -0.0133599226    0.5225118533         -0.6327
N506       N    0.8731351578   -0.0174298433    0.5215408317         -0.6303
H507       H    0.8705599438   -0.0358287498    0.5204039532          -0.619
H508       H    0.9018726683   -0.0022795977    0.5373362254          0.3525
H509       H    0.8823535839    0.0220756772    0.4760635154         -0.6274
H510       H    0.9084620541   -0.0132979764    0.4851993181         -0.6115
H511       H    0.8812470361    0.0304672236    0.5076600259          0.3498
H512       H    0.8646632134   -0.0174946960    0.4844601144         -0.6095
C431       C    1.4063161555   -0.0000000000    0.5000000000          0.3661
C432       C    1.3956883494   -0.0008848290    0.4780187088          0.3659
C433       C    1.3713821669   -0.0001694458    0.4756165897          0.3657
C434       C    1.3560663668    0.0014220916    0.4949758312          0.3657
C435       C    1.3673528321    0.0022917754    0.5169735337           0.366
C436       C    1.3916635051    0.0016166995    0.5194457881          0.3662
C437       C    1.3311683119    0.0020550617    0.4924885301          0.3656
H438       H    1.3650456994   -0.0010925592    0.4569066810          0.3656
H439       H    1.4066874263   -0.0022210064    0.4614804685          0.3659
H440       H    1.3993197444    0.0023920933    0.5377735153          0.3663
H441       H    1.3574867794    0.0036164772    0.5340263160           0.366
C442       C    1.3198896264    0.0014778918    0.4704901705          0.3651
C443       C    1.2955580843    0.0019405488    0.4681237740          0.3651
C444       C    1.2807784934    0.0029704132    0.4875202914          0.3656
C445       C    1.2914361008    0.0036331886    0.5094606166           0.366
C446       C    1.3157863929    0.0032081412    0.5118424948           0.366
C447       C    1.2529980480    0.0028836662    0.4835792740           0.366
H448       H    1.2877067636    0.0013043454    0.4498675717          0.3648
H449       H    1.3297485330    0.0006086056    0.4533723176          0.3647
H450       H    1.3221659224    0.0037254748    0.5305401902          0.3664
H451       H    1.2804201121    0.0043980470    0.5259449682          0.3665
C452       C    1.2363720194    0.0070524171    0.5062616437          0.3642
N453       N    1.2100536649    0.0064132866    0.4992098483          0.3648
N454       N    1.2148776056    0.0158742357    0.4820100125          0.3562
N455       N    1.2372279416    0.0102662955    0.4733885928          0.3598
C456       C    1.1843290953    0.0051906361    0.4999695471          0.3664
H457       H    1.2396662071   -0.0076568256    0.5194279159         -0.6233
H458       H    1.2409435080    0.0244022833    0.5153663033          0.3505
H459       H    1.2478268648   -0.0140956994    0.4743047788         -0.6207
C460       C    1.1627320301    0.0026663895    0.4997785243         -0.6312
C461       C    1.1364349759   -0.0036954171    0.4971660126         -0.6256
C462       C    1.1170097878    0.0082483030    0.5137898240           0.366
C463       C    1.0936838445   -0.0000000000    0.5000000000         -0.6276
N464       N    1.1003186270    0.0043969038    0.4741942195         -0.6327
N465       N    1.1268648422    0.0006667400    0.4722986945         -0.6303
H466       H    1.1294400562   -0.0140898687    0.4612508553          -0.619
H467       H    1.0981273317    0.0224398754    0.4700727168          0.3525
H468       H    1.1176464161    0.0013222019    0.5325352517         -0.6274
H469       H    1.0915379459   -0.0197175368    0.5026674152         -0.6115
H470       H    1.1187529639    0.0281770163    0.5138918488          0.3498
H471       H    1.1353367866   -0.0233942115    0.5005131309         -0.6095
C390       C   -0.0000000000   -0.0936838445   -0.0000000000          0.3661
C391       C   -0.0186514921   -0.1043116506    0.0116654158          0.3659
C392       C   -0.0202317676   -0.1286178331    0.0136108409          0.3657
C393       C   -0.0033470652   -0.1439336332    0.0040077140          0.3657
C394       C    0.0153094388   -0.1326471679   -0.0076794639           0.366
C395       C    0.0169703639   -0.1083364949   -0.0096311547          0.3662
C396       C   -0.0050441612   -0.1688316881    0.0059331186          0.3656
H397       H   -0.0362032898   -0.1349543006    0.0233997786          0.3656
H398       H   -0.0330625590   -0.0933125737    0.0198885487          0.3659
H399       H    0.0325429696   -0.1006802556   -0.0193265543          0.3663
H400       H    0.0301389511   -0.1425132206   -0.0162022441           0.366
C401       C   -0.0235362476   -0.1801103736    0.0178622297          0.3651
C402       C   -0.0252295450   -0.2044419157    0.0195788041          0.3651
C403       C   -0.0086308093   -0.2192215066    0.0094908173          0.3656
C404       C    0.0098616277   -0.2085638992   -0.0023348716           0.366
C405       C    0.0115889197   -0.1842136071   -0.0040291181           0.366
C406       C   -0.0119342846   -0.2470019520    0.0116416763           0.366
H407       H   -0.0406645893   -0.2122932364    0.0293488136          0.3648
H408       H   -0.0381626694   -0.1702514670    0.0267977953          0.3647
H409       H    0.0273215207   -0.1778340776   -0.0141462676          0.3664
H410       H    0.0239060030   -0.2195798879   -0.0109994189          0.3665
C411       C    0.0091481033   -0.2636279806    0.0022928097          0.3642
N412       N    0.0029641867   -0.2899463351    0.0057417925          0.3648
N413       N   -0.0059043085   -0.2851223944    0.0232544652          0.3562
N414       N   -0.0161865547   -0.2627720584    0.0234852988          0.3598
C415       C    0.0029020570   -0.3156709047    0.0043036839          0.3664
H416       H    0.0117258962   -0.2603337929   -0.0172793013         -0.6233
H417       H    0.0264511543   -0.2590564920    0.0114861282          0.3505
H418       H   -0.0291686487   -0.2521731352    0.0028501001         -0.6207
C419       C    0.0013207846   -0.3372679699    0.0023268460         -0.6312
C420       C   -0.0044243444   -0.3635650241   -0.0014535367         -0.6256
C421       C    0.0160394025   -0.3829902122   -0.0009650480           0.366
C422       C    0.0000000000   -0.4063161555    0.0000000000         -0.6276
N423       N   -0.0188312380   -0.3996813730    0.0181839365         -0.6327
N424       N   -0.0225001802   -0.3731351578    0.0161724692         -0.6303
H425       H   -0.0399454994   -0.3705599438    0.0102165402          -0.619
H426       H   -0.0120596938   -0.4018726683    0.0354083899          0.3525
H427       H    0.0276137735   -0.3823535839   -0.0172560231         -0.6274
H428       H   -0.0089167068   -0.4084620541   -0.0177873186         -0.6115
H429       H    0.0273622478   -0.3812470361    0.0154348665          0.3498
H430       H   -0.0127691719   -0.3646632134   -0.0196086890         -0.6095
C349       C    0.0000000000    0.0936838445   -0.0000000000          0.3661
C350       C   -0.0007201075    0.1043116506    0.0219873038          0.3659
C351       C   -0.0016087173    0.1286178331    0.0243308742          0.3657
C352       C   -0.0017846023    0.1439336332    0.0049071185          0.3657
C353       C   -0.0010481934    0.1326471679   -0.0170954489           0.366
C354       C   -0.0001946702    0.1083364949   -0.0195119065          0.3662
C355       C   -0.0025972286    0.1688316881    0.0073416525          0.3656
H356       H   -0.0020521369    0.1349543006    0.0430582926          0.3656
H357       H   -0.0005932334    0.0933125737    0.0385789483          0.3659
H358       H    0.0003682123    0.1006802556   -0.0378473908          0.3663
H359       H   -0.0011261090    0.1425132206   -0.0341994293           0.366
C360       C   -0.0036254209    0.1801103736    0.0293235490          0.3651
C361       C   -0.0042593727    0.2044419157    0.0316499172          0.3651
C362       C   -0.0038723617    0.2192215066    0.0122299344          0.3656
C363       C   -0.0029337782    0.2085638992   -0.0097003233           0.366
C364       C   -0.0023362072    0.1842136071   -0.0120448739           0.366
C365       C   -0.0040731719    0.2470019520    0.0161667883           0.366
H366       H   -0.0049558605    0.2122932364    0.0499039190          0.3648
H367       H   -0.0040064530    0.1702514670    0.0464592241          0.3647
H368       H   -0.0014889782    0.1778340776   -0.0307305275          0.3664
H369       H   -0.0024947826    0.2195798879   -0.0261965695          0.3665
C370       C   -0.0065771337    0.2636279806   -0.0067591480          0.3642
N371       N   -0.0064538266    0.2899463351    0.0003204778          0.3648
N372       N   -0.0171435801    0.2851223944    0.0167847750          0.3562
N373       N   -0.0121791225    0.2627720584    0.0257921071          0.3598
C374       C   -0.0051790428    0.3156709047   -0.0003480599          0.3664
H375       H    0.0090528728    0.2603337929   -0.0188179804         -0.6233
H376       H   -0.0232170379    0.2590564920   -0.0171044982          0.3505
H377       H    0.0121848356    0.2521731352    0.0266545103         -0.6207
C378       C   -0.0026754406    0.3372679699    0.0000264889         -0.6312
C379       C    0.0034789663    0.3635650241    0.0030958659         -0.6256
C380       C   -0.0072209828    0.3829902122   -0.0143544821           0.366
C381       C    0.0000000000    0.4063161555    0.0000000000         -0.6276
N382       N   -0.0062666151    0.3996813730    0.0254165420         -0.6327
N383       N   -0.0026845744    0.3731351578    0.0275789762         -0.6303
H384       H    0.0112273029    0.3705599438    0.0396732692          -0.619
H385       H   -0.0245620551    0.4018726683    0.0282116242          0.3525
H386       H    0.0010533523    0.3823535839   -0.0325450652         -0.6274
H387       H    0.0198595362    0.4084620541   -0.0012227775         -0.6115
H388       H   -0.0270892230    0.3812470361   -0.0159091706          0.3498
H389       H    0.0233693648    0.3646632134    0.0011938278         -0.6095
C308       C   -0.4063161555   -0.0000000000    0.0000000000          0.3661
C309       C   -0.3956883494   -0.0213102215   -0.0054621008          0.3659
C310       C   -0.3713821669   -0.0238088317   -0.0052648785          0.3657
C311       C   -0.3560663668   -0.0052104739    0.0003399686          0.3657
C312       C   -0.3673528321    0.0161189633    0.0057906911           0.366
C313       C   -0.3916635051    0.0186777287    0.0056475519          0.3662
C314       C   -0.3311683119   -0.0077751479    0.0004387864          0.3656
H315       H   -0.3650456994   -0.0419119982   -0.0100802894          0.3656
H316       H   -0.4066874263   -0.0372033556   -0.0102272924          0.3659
H317       H   -0.3993197444    0.0364380561    0.0102385858          0.3663
H318       H   -0.3574867794    0.0325176621    0.0106522644           0.366
C319       C   -0.3198896264   -0.0291663996   -0.0047260274          0.3651
C320       C   -0.2955580843   -0.0315772257   -0.0047684727          0.3651
C321       C   -0.2807784934   -0.0128249564    0.0002949158          0.3656
C322       C   -0.2914361008    0.0084916419    0.0055313059           0.366
C323       C   -0.3157863929    0.0109097422    0.0056137668           0.366
C324       C   -0.2529980480   -0.0166606927   -0.0006140781           0.366
H325       H   -0.2877067636   -0.0492967178   -0.0092084363          0.3648
H326       H   -0.3297485330   -0.0457239691   -0.0091558628          0.3647
H327       H   -0.3221659224    0.0290858241    0.0100298161          0.3664
H328       H   -0.2804201121    0.0244515559    0.0097265414          0.3665
C329       C   -0.2363720194    0.0046483558    0.0082059465          0.3642
N330       N   -0.2100536649   -0.0021138588    0.0061062415          0.3648
N331       N   -0.2148776056   -0.0209119082    0.0117610843          0.3562
N332       N   -0.2372279416   -0.0281699389    0.0044741877          0.3598
C333       C   -0.1843290953   -0.0011152710    0.0050694971          0.3664
H334       H   -0.2396662071    0.0205995771   -0.0034246632         -0.6233
H335       H   -0.2409435080    0.0099234118    0.0270762000          0.3505
H336       H   -0.2478268648   -0.0221793100   -0.0191575401         -0.6207
C337       C   -0.1627320301   -0.0007741872    0.0025611166         -0.6312
C338       C   -0.1364349759   -0.0019985210   -0.0042063649         -0.6256
C339       C   -0.1170097878    0.0117599904    0.0109497204           0.366
C340       C   -0.0936838445   -0.0000000000    0.0000000000         -0.6276
N341       N   -0.1003186270   -0.0261546893   -0.0010969488         -0.6327
N342       N   -0.1268648422   -0.0272282319   -0.0051410363         -0.6303
H343       H   -0.1294400562   -0.0349458166   -0.0218817393          -0.619
H344       H   -0.0981273317   -0.0339582966    0.0156851643          0.3525
H345       H   -0.1176464161    0.0315393570    0.0080968993         -0.6274
H346       H   -0.0915379459    0.0067318645   -0.0187237379         -0.6115
H347       H   -0.1187529639    0.0076921682    0.0304591244          0.3498
H348       H   -0.1353367866    0.0053940981   -0.0227696320         -0.6095
C267       C    0.0936838445   -0.0000000000    0.0000000000          0.3661
C268       C    0.1043116506   -0.0186583565   -0.0116544334          0.3659
C269       C    0.1286178331   -0.0210995073   -0.0122225285          0.3657
C270       C    0.1439336332   -0.0050690734   -0.0012526419          0.3657
C271       C    0.1326471679    0.0136110410    0.0103967613           0.366
C272       C    0.1083364949    0.0160931615    0.0110346067          0.3662
C273       C    0.1688316881   -0.0075434141   -0.0019345188          0.3656
H274       H    0.1349543006   -0.0368968460   -0.0222901454          0.3656
H275       H    0.0933125737   -0.0323644681   -0.0210054368          0.3659
H276       H    0.1006802556    0.0316316296    0.0207846237          0.3663
H277       H    0.1425132206    0.0277698510    0.0199926102           0.366
C278       C    0.1801103736   -0.0263689600   -0.0133301219          0.3651
C279       C    0.2044419157   -0.0286539196   -0.0141000854          0.3651
C280       C    0.2192215066   -0.0123129461   -0.0035997000          0.3656
C281       C    0.2085638992    0.0064197875    0.0078415339           0.366
C282       C    0.1842136071    0.0086995717    0.0086518382           0.366
C283       C    0.2470019520   -0.0156937995   -0.0056267603           0.366
H284       H    0.2122932364   -0.0441991801   -0.0236937578          0.3648
H285       H    0.1702514670   -0.0408098351   -0.0225625470          0.3647
H286       H    0.1778340776    0.0246872529    0.0183608801          0.3664
H287       H    0.2195798879    0.0203620152    0.0166695090          0.3665
C288       C    0.2636279806    0.0019473422    0.0092278182          0.3642
N289       N    0.2899463351   -0.0038624869    0.0051803261          0.3648
N290       N    0.2851223944   -0.0234903960    0.0048818343          0.3562
N291       N    0.2627720584   -0.0282031696   -0.0042596992          0.3598
C292       C    0.3156709047   -0.0025969988    0.0044943551          0.3664
H293       H    0.2603337929    0.0206701336    0.0029692540         -0.6233
H294       H    0.2590564920    0.0012650198    0.0288096239          0.3505
H295       H    0.2521731352   -0.0153425060   -0.0249707959         -0.6207
C296       C    0.3372679699   -0.0015128778    0.0022067816         -0.6312
C297       C    0.3635650241   -0.0006319955   -0.0046139109         -0.6256
C298       C    0.3829902122    0.0078953170    0.0139949176           0.366
C299       C    0.4063161555   -0.0000000000    0.0000000000         -0.6276
N300       N    0.3996813730   -0.0245965900   -0.0089598456         -0.6327
N301       N    0.3731351578   -0.0243960759   -0.0131391914         -0.6303
H302       H    0.3705599438   -0.0266861682   -0.0314303841          -0.619
H303       H    0.4018726683   -0.0371125663    0.0046741540          0.3525
H304       H    0.3823535839    0.0276106553    0.0172610120         -0.6274
H305       H    0.4084620541    0.0120820076   -0.0158089043         -0.6115
H306       H    0.3812470361   -0.0018852820    0.0313587854          0.3498
H307       H    0.3646632134    0.0120312317   -0.0200699252         -0.6095
C226       C    0.0000000000    0.0000000000   -0.0936838445          0.3661
C227       C    0.0219798731   -0.0009193828   -0.1043116506          0.3659
C228       C    0.0243831138   -0.0002077767   -0.1286178331          0.3657
C229       C    0.0050263982    0.0014141918   -0.1439336332          0.3657
C230       C   -0.0169699101    0.0023184552   -0.1326471679           0.366
C231       C   -0.0194432226    0.0016472665   -0.1083364949          0.3662
C232       C    0.0075146912    0.0020432510   -0.1688316881          0.3656
H233       H    0.0430915483   -0.0011603011   -0.1349543006          0.3656
H234       H    0.0385159924   -0.0022815569   -0.0933125737          0.3659
H235       H   -0.0377697083    0.0024514708   -0.1006802556          0.3663
H236       H   -0.0340205888    0.0036699626   -0.1425132206           0.366
C237       C    0.0295121163    0.0014315001   -0.1801103736          0.3651
C238       C    0.0318792372    0.0018904366   -0.2044419157          0.3651
C239       C    0.0124843627    0.0029507913   -0.2192215066          0.3656
C240       C   -0.0094548935    0.0036480564   -0.2085638992           0.366
C241       C   -0.0118374369    0.0032267538   -0.1842136071           0.366
C242       C    0.0164252389    0.0028578490   -0.2470019520           0.366
H243       H    0.0501344168    0.0012255349   -0.2122932364          0.3648
H244       H    0.0466285816    0.0005353055   -0.1702514670          0.3647
H245       H   -0.0305342959    0.0037734798   -0.1778340776          0.3664
H246       H   -0.0259380224    0.0044388274   -0.2195798879          0.3665
C247       C   -0.0062505495    0.0070622518   -0.2636279806          0.3642
N248       N    0.0008002325    0.0064120365   -0.2899463351          0.3648
N249       N    0.0180149198    0.0158459356   -0.2851223944          0.3562
N250       N    0.0266275130    0.0102244493   -0.2627720584          0.3598
C251       C    0.0000386126    0.0051905818   -0.3156709047          0.3664
H252       H   -0.0194399285   -0.0076262752   -0.2603337929         -0.6233
H253       H   -0.0153279236    0.0244264092   -0.2590564920          0.3505
H254       H    0.0256730309   -0.0141360752   -0.2521731352         -0.6207
C255       C    0.0002256670    0.0026660380   -0.3372679699         -0.6312
C256       C    0.0028281747   -0.0036998676   -0.3635650241         -0.6256
C257       C   -0.0137768405    0.0082699706   -0.3829902122           0.366
C258       C   -0.0000000000    0.0000000000   -0.4063161555         -0.6276
N259       N    0.0258126606    0.0043563314   -0.3996813730         -0.6327
N260       N    0.0277023194    0.0006231923   -0.3731351578         -0.6303
H261       H    0.0387269474   -0.0141507655   -0.3705599438          -0.619
H262       H    0.0299625220    0.0223928016   -0.4018726683          0.3525
H263       H   -0.0325331329    0.0013733461   -0.3823535839         -0.6274
H264       H   -0.0026984081   -0.0197133193   -0.4084620541         -0.6115
H265       H   -0.0138475370    0.0281988197   -0.3812470361          0.3498
H266       H   -0.0005499063   -0.0233933759   -0.3646632134         -0.6095
C185       C    0.0000000000   -0.0000000000    0.0936838445          0.3661
C186       C   -0.0219917724    0.0005674787    0.1043116506          0.3659
C187       C   -0.0243414541    0.0014398007    0.1286178331          0.3657
C188       C   -0.0049193870    0.0017504996    0.1439336332          0.3657
C189       C    0.0170877617    0.0011668258    0.1326471679           0.366
C190       C    0.0195100853    0.0003300955    0.1083364949          0.3662
C191       C   -0.0073595028    0.0025462085    0.1688316881          0.3656
H192       H   -0.0430714991    0.0017532246    0.1349543006          0.3656
H193       H   -0.0385821365    0.0003254469    0.0933125737          0.3659
H194       H    0.0378490348   -0.0001055088    0.1006802556          0.3663
H195       H    0.0341907893    0.0013634563    0.1425132206           0.366
C196       C   -0.0293480063    0.0034218021    0.1801103736          0.3651
C197       C   -0.0316787186    0.0040395916    0.2044419157          0.3595
C198       C   -0.0122565175    0.0037873818    0.2192215066          0.3656
C199       C    0.0096797266    0.0030010364    0.2085638992           0.366
C200       C    0.0120283684    0.0024197531    0.1842136071           0.366
C201       C   -0.0161946703    0.0039608619    0.2470019520           0.366
H202       H   -0.0499371150    0.0046093636    0.2122932364          0.3648
H203       H   -0.0464859133    0.0036838882    0.1702514670          0.3647
H204       H    0.0307194524    0.0017022395    0.1778340776          0.3664
H205       H    0.0261786224    0.0026765500    0.2195798879          0.3665
C206       C    0.0067133340    0.0066238898    0.2636279806          0.3642
N207       N   -0.0003652654    0.0064514468    0.2899463351          0.3648
N208       N   -0.0169033624    0.0170266658    0.2851223944          0.3562
N209       N   -0.0258760198    0.0119998090    0.2627720584          0.3598
C210       C    0.0003121044    0.0051813339    0.3156709047          0.3664
H211       H    0.0188803621   -0.0089220413    0.2603337929         -0.6233
H212       H    0.0169429393    0.0233351990    0.2590564920          0.3505
H213       H   -0.0265692946   -0.0123695481    0.2521731352         -0.6207
C214       C   -0.0000450582    0.0026751923    0.3372679699         -0.6312
C215       C   -0.0030716442   -0.0035003706    0.3635650241         -0.6256
C216       C    0.0143040163    0.0073204417    0.3829902122           0.366
C217       C   -0.0000000000    0.0000000000    0.4063161555         -0.6276
N218       N   -0.0254594256    0.0060900507    0.3996813730         -0.6327
N219       N   -0.0275969452    0.0024930871    0.3731351578         -0.6303
H220       H   -0.0395943860   -0.0115024002    0.3705599438          -0.619
H221       H   -0.0283814272    0.0243656496    0.4018726683          0.3525
H222       H    0.0325515924   -0.0008274352    0.3823535839         -0.6274
H223       H    0.0013605908   -0.0198505707    0.4084620541         -0.6115
H224       H    0.0157207641    0.0271989943    0.3812470361          0.3498
H225       H   -0.0010315948   -0.0233770881    0.3646632134         -0.6095
loop_
_geom_bond_atom_site_label_1
_geom_bond_atom_site_label_2
_geom_bond_distance
_geom_bond_site_symmetry_2
_ccdc_geom_bond_type
Zn1          O5 1.942       .   S
Zn1          O6 1.922       .   S
Zn1         O10 1.922       .   S
Zn1         O17 1.922       .   S
Zn2          O5 1.942       .   S
Zn2          O7 1.922       .   S
Zn2          O9 1.922       .   S
Zn2         O13 1.922       .   S
Zn3          O5 1.942       .   S
Zn3          O8 1.922       .   S
Zn3         O11 1.922       .   S
Zn3         O14 1.922       .   S
Zn4          O5 1.942       .   S
Zn4         O12 1.922       .   S
Zn4         O15 1.922       .   S
Zn4         O16 1.922       .   S
O6          C18 1.304       .   A
O7          C19 1.304       .   A
O8          C20 1.304       .   A
O9          C18 1.304       .   A
O10         C20 1.304       .   A
O11         C19 1.304       .   A
O12         C21 1.304       .   A
O13         C22 1.304       .   A
O14         C21 1.304       .   A
O15         C22 1.304       .   A
O16         C23 1.304       .   A
O17         C23 1.304       .   A
C18        C349 1.540       .   S
C19        C226 1.540       .   S
C20        C267 1.540       .   S
C21        C390 1.540       .   S
C22        C340 1.540       .   S
C23        C185 1.540       .   S
Zn24        O28 1.942       .   S
Zn24        O29 1.922       .   S
Zn24        O33 1.922       .   S
Zn24        O40 1.922       .   S
Zn25        O28 1.942       .   S
Zn25        O30 1.922       .   S
Zn25        O32 1.922       .   S
Zn25        O36 1.922       .   S
Zn26        O28 1.942       .   S
Zn26        O31 1.922       .   S
Zn26        O34 1.922       .   S
Zn26        O37 1.922       .   S
Zn27        O28 1.942       .   S
Zn27        O35 1.922       .   S
Zn27        O38 1.922       .   S
Zn27        O39 1.922       .   S
O29         C41 1.304       .   A
O30         C42 1.304       .   A
O31         C43 1.304       .   A
O32         C41 1.304       .   A
O33         C43 1.304       .   A
O34         C42 1.304       .   A
O35         C44 1.304       .   A
O36         C45 1.304       .   A
O37         C44 1.304       .   A
O38         C45 1.304       .   A
O39         C46 1.304       .   A
O40         C46 1.304       .   A
C41        C217 1.540   1_655   S
C42        C554 1.540       .   S
C43        C463 1.540       .   S
C44        C258 1.540   1_656   S
C45        C504 1.540       .   S
C46        C513 1.540       .   S
Zn47        O51 1.942       .   S
Zn47        O52 1.922       .   S
Zn47        O56 1.922       .   S
Zn47        O63 1.922       .   S
Zn48        O51 1.942       .   S
Zn48        O53 1.922       .   S
Zn48        O55 1.922       .   S
Zn48        O59 1.922       .   S
Zn49        O51 1.942       .   S
Zn49        O54 1.922       .   S
Zn49        O57 1.922       .   S
Zn49        O60 1.922       .   S
Zn50        O51 1.942       .   S
Zn50        O58 1.922       .   S
Zn50        O61 1.922       .   S
Zn50        O62 1.922       .   S
O52         C64 1.304       .   A
O53         C65 1.304       .   A
O54         C66 1.304       .   A
O55         C64 1.304       .   A
O56         C66 1.304       .   A
O57         C65 1.304       .   A
O58         C67 1.304       .   A
O59         C68 1.304       .   A
O60         C67 1.304       .   A
O61         C68 1.304       .   A
O62         C69 1.304       .   A
O63         C69 1.304       .   A
C64        C381 1.540   1_655   S
C65        C627 1.540       .   S
C66        C709 1.540       .   S
C67        C422 1.540   1_665   S
C68        C750 1.540       .   S
C69        C636 1.540       .   S
Zn70        O74 1.942       .   S
Zn70        O75 1.922       .   S
Zn70        O79 1.922       .   S
Zn70        O86 1.922       .   S
Zn71        O74 1.942       .   S
Zn71        O76 1.922       .   S
Zn71        O78 1.922       .   S
Zn71        O82 1.922       .   S
Zn72        O74 1.942       .   S
Zn72        O77 1.922       .   S
Zn72        O80 1.922       .   S
Zn72        O83 1.922       .   S
Zn73        O74 1.942       .   S
Zn73        O81 1.922       .   S
Zn73        O84 1.922       .   S
Zn73        O85 1.922       .   S
O75         C87 1.304       .   A
O76         C88 1.304       .   A
O77         C89 1.304       .   A
O78         C87 1.304       .   A
O79         C89 1.304       .   A
O80         C88 1.304       .   A
O81         C90 1.304       .   A
O82         C91 1.304       .   A
O83         C90 1.304       .   A
O84         C91 1.304       .   A
O85         C92 1.304       .   A
O86         C92 1.304       .   A
C87        C545 1.540       .   S
C88        C800 1.540       .   S
C89        C668 1.540   1_556   S
C90        C586 1.540   1_565   S
C91        C595 1.540       .   S
C92        C759 1.540       .   S
Zn93        O97 1.942       .   S
Zn93        O98 1.922       .   S
Zn93       O102 1.922       .   S
Zn93       O109 1.922       .   S
Zn94        O97 1.942       .   S
Zn94        O99 1.922       .   S
Zn94       O101 1.922       .   S
Zn94       O105 1.922       .   S
Zn95        O97 1.942       .   S
Zn95       O100 1.922       .   S
Zn95       O103 1.922       .   S
Zn95       O106 1.922       .   S
Zn96        O97 1.942       .   S
Zn96       O104 1.922       .   S
Zn96       O107 1.922       .   S
Zn96       O108 1.922       .   S
O98        C110 1.304       .   A
O99        C111 1.304       .   A
O100       C112 1.304       .   A
O101       C110 1.304       .   A
O102       C112 1.304       .   A
O103       C111 1.304       .   A
O104       C113 1.304       .   A
O105       C114 1.304       .   A
O106       C113 1.304       .   A
O107       C114 1.304       .   A
O108       C115 1.304       .   A
O109       C115 1.304       .   A
C110       C299 1.540   1_565   S
C111       C841 1.540       .   S
C112       C996 1.540       .   S
C113       C308 1.540   1_665   S
C114       C955 1.540       .   S
C115       C882 1.540       .   S
Zn116      O120 1.942       .   S
Zn116      O121 1.922       .   S
Zn116      O125 1.922       .   S
Zn116      O132 1.922       .   S
Zn117      O120 1.942       .   S
Zn117      O122 1.922       .   S
Zn117      O124 1.922       .   S
Zn117      O128 1.922       .   S
Zn118      O120 1.942       .   S
Zn118      O123 1.922       .   S
Zn118      O126 1.922       .   S
Zn118      O129 1.922       .   S
Zn119      O120 1.942       .   S
Zn119      O127 1.922       .   S
Zn119      O130 1.922       .   S
Zn119      O131 1.922       .   S
O121       C133 1.304       .   A
O122       C134 1.304       .   A
O123       C135 1.304       .   A
O124       C133 1.304       .   A
O125       C135 1.304       .   A
O126       C134 1.304       .   A
O127       C136 1.304       .   A
O128       C137 1.304       .   A
O129       C136 1.304       .   A
O130       C137 1.304       .   A
O131       C138 1.304       .   A
O132       C138 1.304       .   A
C133       C431 1.540   1_465   S
C134       C873 1.540       .   S
C135      C1037 1.540       .   S
C136       C472 1.540   1_565   S
C137      C1078 1.540       .   S
C138       C914 1.540   1_556   S
Zn139      O143 1.942       .   S
Zn139      O144 1.922       .   S
Zn139      O148 1.922       .   S
Zn139      O155 1.922       .   S
Zn140      O143 1.942       .   S
Zn140      O145 1.922       .   S
Zn140      O147 1.922       .   S
Zn140      O151 1.922       .   S
Zn141      O143 1.942       .   S
Zn141      O146 1.922       .   S
Zn141      O149 1.922       .   S
Zn141      O152 1.922       .   S
Zn142      O143 1.942       .   S
Zn142      O150 1.922       .   S
Zn142      O153 1.922       .   S
Zn142      O154 1.922       .   S
O144       C156 1.304       .   A
O145       C157 1.304       .   A
O146       C158 1.304       .   A
O147       C156 1.304       .   A
O148       C158 1.304       .   A
O149       C157 1.304       .   A
O150       C159 1.304       .   A
O151       C160 1.304       .   A
O152       C159 1.304       .   A
O153       C160 1.304       .   A
O154       C161 1.304       .   A
O155       C161 1.304       .   A
C156       C677 1.540   1_455   S
C157       C923 1.540   1_545   S
C158      C1160 1.540       .   S
C159       C718 1.540       .   S
C160      C1119 1.540       .   S
C161       C964 1.540       .   S
Zn162      O166 1.942       .   S
Zn162      O167 1.922       .   S
Zn162      O171 1.922       .   S
Zn162      O178 1.922       .   S
Zn163      O166 1.942       .   S
Zn163      O168 1.922       .   S
Zn163      O170 1.922       .   S
Zn163      O174 1.922       .   S
Zn164      O166 1.942       .   S
Zn164      O169 1.922       .   S
Zn164      O172 1.922       .   S
Zn164      O175 1.922       .   S
Zn165      O166 1.942       .   S
Zn165      O173 1.922       .   S
Zn165      O176 1.922       .   S
Zn165      O177 1.922       .   S
O167       C179 1.304       .   A
O168       C180 1.304       .   A
O169       C181 1.304       .   A
O170       C179 1.304       .   A
O171       C181 1.304       .   A
O172       C180 1.304       .   A
O173       C182 1.304       .   A
O174       C183 1.304       .   A
O175       C182 1.304       .   A
O176       C183 1.304       .   A
O177       C184 1.304       .   A
O178       C184 1.304       .   A
C179       C791 1.540   1_455   S
C180      C1005 1.540   1_545   S
C181      C1087 1.540       .   S
C182       C832 1.540       .   S
C183      C1128 1.540   1_556   S
C184      C1046 1.540       .   S
C1128     C1129 0.020       .   A
C1128     C1133 0.020       .   A
C1129     C1130 0.020       .   A
C1129     H1136 0.016       .   A
C1130     C1131 0.020       .   A
C1130     H1135 0.016       .   A
C1131     C1132 0.020       .   A
C1131     C1134 0.020       .   A
C1132     C1133 0.020       .   A
C1132     H1138 0.016       .   A
C1133     H1137 0.016       .   A
C1134     C1139 0.020       .   A
C1134     C1143 0.020       .   A
C1139     C1140 0.020       .   A
C1139     H1146 0.016       .   A
C1140     C1141 0.020       .   A
C1140     H1145 0.016       .   A
C1141     C1142 0.020       .   A
C1141     C1144 0.023       .   A
C1142     C1143 0.020       .   A
C1142     H1148 0.016       .   A
C1143     H1147 0.016       .   A
C1144     C1149 0.023       .   A
C1144     N1152 0.016       .   A
C1144     H1156 0.016       .   A
C1149     N1150 0.022       .   A
C1149     H1154 0.016       .   A
C1149     H1155 0.016       .   A
N1150     N1151 0.016       .   A
N1150     C1153 0.021       .   A
N1151     N1152 0.020       .   A
C1153     C1157 0.018       .   A
C1157     C1158 0.022       .   A
C1158     C1159 0.023       .   A
C1158     N1162 0.022       .   A
C1158     H1168 0.016       .   A
C1159     C1160 0.023       .   A
C1159     H1165 0.016       .   A
C1159     H1167 0.016       .   A
C1160     N1161 0.022       .   A
C1160     H1166 0.016       .   A
N1161     N1162 0.022       .   A
N1161     H1164 0.015       .   A
N1162     H1163 0.015       .   A
C1087     C1088 0.020       .   A
C1087     C1092 0.020       .   A
C1088     C1089 0.020       .   A
C1088     H1095 0.016       .   A
C1089     C1090 0.020       .   A
C1089     H1094 0.016       .   A
C1090     C1091 0.020       .   A
C1090     C1093 0.020       .   A
C1091     C1092 0.020       .   A
C1091     H1097 0.016       .   A
C1092     H1096 0.016       .   A
C1093     C1098 0.020       .   A
C1093     C1102 0.020       .   A
C1098     C1099 0.020       .   A
C1098     H1105 0.016       .   A
C1099     C1100 0.020       .   A
C1099     H1104 0.016       .   A
C1100     C1101 0.020       .   A
C1100     C1103 0.023       .   A
C1101     C1102 0.020       .   A
C1101     H1107 0.016       .   A
C1102     H1106 0.016       .   A
C1103     C1108 0.023       .   A
C1103     N1111 0.016       .   A
C1103     H1115 0.016       .   A
C1108     N1109 0.022       .   A
C1108     H1113 0.016       .   A
C1108     H1114 0.016       .   A
N1109     N1110 0.016       .   A
N1109     C1112 0.021       .   A
N1110     N1111 0.020       .   A
C1112     C1116 0.018       .   A
C1116     C1117 0.022       .   A
C1117     C1118 0.023       .   A
C1117     N1121 0.022       .   A
C1117     H1127 0.016       .   A
C1118     C1119 0.023       .   A
C1118     H1124 0.016       .   A
C1118     H1126 0.016       .   A
C1119     N1120 0.022       .   A
C1119     H1125 0.016       .   A
N1120     N1121 0.022       .   A
N1120     H1123 0.015       .   A
N1121     H1122 0.015       .   A
C1046     C1047 0.020       .   A
C1046     C1051 0.020       .   A
C1047     C1048 0.020       .   A
C1047     H1054 0.016       .   A
C1048     C1049 0.020       .   A
C1048     H1053 0.016       .   A
C1049     C1050 0.020       .   A
C1049     C1052 0.020       .   A
C1050     C1051 0.020       .   A
C1050     H1056 0.016       .   A
C1051     H1055 0.016       .   A
C1052     C1057 0.020       .   A
C1052     C1061 0.020       .   A
C1057     C1058 0.020       .   A
C1057     H1064 0.016       .   A
C1058     C1059 0.020       .   A
C1058     H1063 0.016       .   A
C1059     C1060 0.020       .   A
C1059     C1062 0.023       .   A
C1060     C1061 0.020       .   A
C1060     H1066 0.016       .   A
C1061     H1065 0.016       .   A
C1062     C1067 0.023       .   A
C1062     N1070 0.016       .   A
C1062     H1074 0.016       .   A
C1067     N1068 0.022       .   A
C1067     H1072 0.016       .   A
C1067     H1073 0.016       .   A
N1068     N1069 0.016       .   A
N1068     C1071 0.021       .   A
N1069     N1070 0.020       .   A
C1071     C1075 0.018       .   A
C1075     C1076 0.022       .   A
C1076     C1077 0.023       .   A
C1076     N1080 0.022       .   A
C1076     H1086 0.016       .   A
C1077     C1078 0.023       .   A
C1077     H1083 0.016       .   A
C1077     H1085 0.016       .   A
C1078     N1079 0.022       .   A
C1078     H1084 0.016       .   A
N1079     N1080 0.022       .   A
N1079     H1082 0.015       .   A
N1080     H1081 0.015       .   A
C1005     C1006 0.020       .   A
C1005     C1010 0.020       .   A
C1006     C1007 0.020       .   A
C1006     H1013 0.016       .   A
C1007     C1008 0.020       .   A
C1007     H1012 0.016       .   A
C1008     C1009 0.020       .   A
C1008     C1011 0.020       .   A
C1009     C1010 0.020       .   A
C1009     H1015 0.016       .   A
C1010     H1014 0.016       .   A
C1011     C1016 0.020       .   A
C1011     C1020 0.020       .   A
C1016     C1017 0.020       .   A
C1016     H1023 0.016       .   A
C1017     C1018 0.020       .   A
C1017     H1022 0.016       .   A
C1018     C1019 0.020       .   A
C1018     C1021 0.023       .   A
C1019     C1020 0.020       .   A
C1019     H1025 0.016       .   A
C1020     H1024 0.016       .   A
C1021     C1026 0.023       .   A
C1021     N1029 0.016       .   A
C1021     H1033 0.016       .   A
C1026     N1027 0.022       .   A
C1026     H1031 0.016       .   A
C1026     H1032 0.016       .   A
N1027     N1028 0.016       .   A
N1027     C1030 0.021       .   A
N1028     N1029 0.020       .   A
C1030     C1034 0.018       .   A
C1034     C1035 0.022       .   A
C1035     C1036 0.023       .   A
C1035     N1039 0.022       .   A
C1035     H1045 0.016       .   A
C1036     C1037 0.023       .   A
C1036     H1042 0.016       .   A
C1036     H1044 0.016       .   A
C1037     N1038 0.022       .   A
C1037     H1043 0.016       .   A
N1038     N1039 0.022       .   A
N1038     H1041 0.015       .   A
N1039     H1040 0.015       .   A
C964       C965 0.020       .   A
C964       C969 0.020       .   A
C965       C966 0.020       .   A
C965       H972 0.016       .   A
C966       C967 0.020       .   A
C966       H971 0.016       .   A
C967       C968 0.020       .   A
C967       C970 0.020       .   A
C968       C969 0.020       .   A
C968       H974 0.016       .   A
C969       H973 0.016       .   A
C970       C975 0.020       .   A
C970       C979 0.020       .   A
C975       C976 0.020       .   A
C975       H982 0.016       .   A
C976       C977 0.020       .   A
C976       H981 0.016       .   A
C977       C978 0.020       .   A
C977       C980 0.023       .   A
C978       C979 0.020       .   A
C978       H984 0.016       .   A
C979       H983 0.016       .   A
C980       C985 0.023       .   A
C980       N988 0.016       .   A
C980       H992 0.016       .   A
C985       N986 0.022       .   A
C985       H990 0.016       .   A
C985       H991 0.016       .   A
N986       N987 0.016       .   A
N986       C989 0.021       .   A
N987       N988 0.020       .   A
C989       C993 0.018       .   A
C993       C994 0.022       .   A
C994       C995 0.023       .   A
C994       N998 0.022       .   A
C994      H1004 0.016       .   A
C995       C996 0.023       .   A
C995      H1001 0.016       .   A
C995      H1003 0.016       .   A
C996       N997 0.022       .   A
C996      H1002 0.016       .   A
N997       N998 0.022       .   A
N997      H1000 0.015       .   A
N998       H999 0.015       .   A
C923       C924 0.020       .   A
C923       C928 0.020       .   A
C924       C925 0.020       .   A
C924       H931 0.016       .   A
C925       C926 0.020       .   A
C925       H930 0.016       .   A
C926       C927 0.020       .   A
C926       C929 0.020       .   A
C927       C928 0.020       .   A
C927       H933 0.016       .   A
C928       H932 0.016       .   A
C929       C934 0.020       .   A
C929       C938 0.020       .   A
C934       C935 0.020       .   A
C934       H941 0.016       .   A
C935       C936 0.020       .   A
C935       H940 0.016       .   A
C936       C937 0.020       .   A
C936       C939 0.023       .   A
C937       C938 0.020       .   A
C937       H943 0.016       .   A
C938       H942 0.016       .   A
C939       C944 0.023       .   A
C939       N947 0.016       .   A
C939       H951 0.016       .   A
C944       N945 0.022       .   A
C944       H949 0.016       .   A
C944       H950 0.016       .   A
N945       N946 0.016       .   A
N945       C948 0.021       .   A
N946       N947 0.020       .   A
C948       C952 0.018       .   A
C952       C953 0.022       .   A
C953       C954 0.023       .   A
C953       N957 0.022       .   A
C953       H963 0.016       .   A
C954       C955 0.023       .   A
C954       H960 0.016       .   A
C954       H962 0.016       .   A
C955       N956 0.022       .   A
C955       H961 0.016       .   A
N956       N957 0.022       .   A
N956       H959 0.015       .   A
N957       H958 0.015       .   A
C882       C883 0.020       .   A
C882       C887 0.020       .   A
C883       C884 0.020       .   A
C883       H890 0.016       .   A
C884       C885 0.020       .   A
C884       H889 0.016       .   A
C885       C886 0.020       .   A
C885       C888 0.020       .   A
C886       C887 0.020       .   A
C886       H892 0.016       .   A
C887       H891 0.016       .   A
C888       C893 0.020       .   A
C888       C897 0.020       .   A
C893       C894 0.020       .   A
C893       H900 0.016       .   A
C894       C895 0.020       .   A
C894       H899 0.016       .   A
C895       C896 0.020       .   A
C895       C898 0.023       .   A
C896       C897 0.020       .   A
C896       H902 0.016       .   A
C897       H901 0.016       .   A
C898       C903 0.023       .   A
C898       N906 0.016       .   A
C898       H910 0.016       .   A
C903       N904 0.022       .   A
C903       H908 0.016       .   A
C903       H909 0.016       .   A
N904       N905 0.016       .   A
N904       C907 0.021       .   A
N905       N906 0.020       .   A
C907       C911 0.018       .   A
C911       C912 0.022       .   A
C912       C913 0.023       .   A
C912       N916 0.022       .   A
C912       H922 0.016       .   A
C913       C914 0.023       .   A
C913       H919 0.016       .   A
C913       H921 0.016       .   A
C914       N915 0.022       .   A
C914       H920 0.016       .   A
N915       N916 0.022       .   A
N915       H918 0.015       .   A
N916       H917 0.015       .   A
C841       C842 0.020       .   A
C841       C846 0.020       .   A
C842       C843 0.020       .   A
C842       H849 0.016       .   A
C843       C844 0.020       .   A
C843       H848 0.016       .   A
C844       C845 0.020       .   A
C844       C847 0.020       .   A
C845       C846 0.020       .   A
C845       H851 0.016       .   A
C846       H850 0.016       .   A
C847       C852 0.020       .   A
C847       C856 0.020       .   A
C852       C853 0.020       .   A
C852       H859 0.016       .   A
C853       C854 0.020       .   A
C853       H858 0.016       .   A
C854       C855 0.020       .   A
C854       C857 0.023       .   A
C855       C856 0.020       .   A
C855       H861 0.016       .   A
C856       H860 0.016       .   A
C857       C862 0.023       .   A
C857       N865 0.016       .   A
C857       H869 0.016       .   A
C862       N863 0.022       .   A
C862       H867 0.016       .   A
C862       H868 0.016       .   A
N863       N864 0.016       .   A
N863       C866 0.021       .   A
N864       N865 0.020       .   A
C866       C870 0.018       .   A
C870       C871 0.022       .   A
C871       C872 0.023       .   A
C871       N875 0.022       .   A
C871       H881 0.016       .   A
C872       C873 0.023       .   A
C872       H878 0.016       .   A
C872       H880 0.016       .   A
C873       N874 0.022       .   A
C873       H879 0.016       .   A
N874       N875 0.022       .   A
N874       H877 0.015       .   A
N875       H876 0.015       .   A
C800       C801 0.020       .   A
C800       C805 0.020       .   A
C801       C802 0.020       .   A
C801       H808 0.016       .   A
C802       C803 0.020       .   A
C802       H807 0.016       .   A
C803       C804 0.020       .   A
C803       C806 0.020       .   A
C804       C805 0.020       .   A
C804       H810 0.016       .   A
C805       H809 0.016       .   A
C806       C811 0.020       .   A
C806       C815 0.020       .   A
C811       C812 0.020       .   A
C811       H818 0.016       .   A
C812       C813 0.020       .   A
C812       H817 0.016       .   A
C813       C814 0.020       .   A
C813       C816 0.023       .   A
C814       C815 0.020       .   A
C814       H820 0.016       .   A
C815       H819 0.016       .   A
C816       C821 0.023       .   A
C816       N824 0.016       .   A
C816       H828 0.016       .   A
C821       N822 0.022       .   A
C821       H826 0.016       .   A
C821       H827 0.016       .   A
N822       N823 0.016       .   A
N822       C825 0.021       .   A
N823       N824 0.020       .   A
C825       C829 0.018       .   A
C829       C830 0.022       .   A
C830       C831 0.023       .   A
C830       N834 0.022       .   A
C830       H840 0.016       .   A
C831       C832 0.023       .   A
C831       H837 0.016       .   A
C831       H839 0.016       .   A
C832       N833 0.022       .   A
C832       H838 0.016       .   A
N833       N834 0.022       .   A
N833       H836 0.015       .   A
N834       H835 0.015       .   A
C759       C760 0.020       .   A
C759       C764 0.020       .   A
C760       C761 0.020       .   A
C760       H767 0.016       .   A
C761       C762 0.020       .   A
C761       H766 0.016       .   A
C762       C763 0.020       .   A
C762       C765 0.020       .   A
C763       C764 0.020       .   A
C763       H769 0.016       .   A
C764       H768 0.016       .   A
C765       C770 0.020       .   A
C765       C774 0.020       .   A
C770       C771 0.020       .   A
C770       H777 0.016       .   A
C771       C772 0.020       .   A
C771       H776 0.016       .   A
C772       C773 0.020       .   A
C772       C775 0.023       .   A
C773       C774 0.020       .   A
C773       H779 0.016       .   A
C774       H778 0.016       .   A
C775       C780 0.023       .   A
C775       N783 0.016       .   A
C775       H787 0.016       .   A
C780       N781 0.022       .   A
C780       H785 0.016       .   A
C780       H786 0.016       .   A
N781       N782 0.016       .   A
N781       C784 0.021       .   A
N782       N783 0.020       .   A
C784       C788 0.018       .   A
C788       C789 0.022       .   A
C789       C790 0.023       .   A
C789       N793 0.022       .   A
C789       H799 0.016       .   A
C790       C791 0.023       .   A
C790       H796 0.016       .   A
C790       H798 0.016       .   A
C791       N792 0.022       .   A
C791       H797 0.016       .   A
N792       N793 0.022       .   A
N792       H795 0.015       .   A
N793       H794 0.015       .   A
C718       C719 0.020       .   A
C718       C723 0.020       .   A
C719       C720 0.020       .   A
C719       H726 0.016       .   A
C720       C721 0.020       .   A
C720       H725 0.016       .   A
C721       C722 0.020       .   A
C721       C724 0.020       .   A
C722       C723 0.020       .   A
C722       H728 0.016       .   A
C723       H727 0.016       .   A
C724       C729 0.020       .   A
C724       C733 0.020       .   A
C729       C730 0.020       .   A
C729       H736 0.016       .   A
C730       C731 0.020       .   A
C730       H735 0.016       .   A
C731       C732 0.020       .   A
C731       C734 0.023       .   A
C732       C733 0.020       .   A
C732       H738 0.016       .   A
C733       H737 0.016       .   A
C734       C739 0.023       .   A
C734       N742 0.016       .   A
C734       H746 0.016       .   A
C739       N740 0.022       .   A
C739       H744 0.016       .   A
C739       H745 0.016       .   A
N740       N741 0.016       .   A
N740       C743 0.021       .   A
N741       N742 0.020       .   A
C743       C747 0.018       .   A
C747       C748 0.022       .   A
C748       C749 0.023       .   A
C748       N752 0.022       .   A
C748       H758 0.016       .   A
C749       C750 0.023       .   A
C749       H755 0.016       .   A
C749       H757 0.016       .   A
C750       N751 0.022       .   A
C750       H756 0.016       .   A
N751       N752 0.022       .   A
N751       H754 0.015       .   A
N752       H753 0.015       .   A
C677       C678 0.020       .   A
C677       C682 0.020       .   A
C678       C679 0.020       .   A
C678       H685 0.016       .   A
C679       C680 0.020       .   A
C679       H684 0.016       .   A
C680       C681 0.020       .   A
C680       C683 0.020       .   A
C681       C682 0.020       .   A
C681       H687 0.016       .   A
C682       H686 0.016       .   A
C683       C688 0.020       .   A
C683       C692 0.020       .   A
C688       C689 0.020       .   A
C688       H695 0.016       .   A
C689       C690 0.020       .   A
C689       H694 0.016       .   A
C690       C691 0.020       .   A
C690       C693 0.023       .   A
C691       C692 0.020       .   A
C691       H697 0.016       .   A
C692       H696 0.016       .   A
C693       C698 0.023       .   A
C693       N701 0.016       .   A
C693       H705 0.016       .   A
C698       N699 0.022       .   A
C698       H703 0.016       .   A
C698       H704 0.016       .   A
N699       N700 0.016       .   A
N699       C702 0.021       .   A
N700       N701 0.020       .   A
C702       C706 0.018       .   A
C706       C707 0.022       .   A
C707       C708 0.023       .   A
C707       N711 0.022       .   A
C707       H717 0.016       .   A
C708       C709 0.023       .   A
C708       H714 0.016       .   A
C708       H716 0.016       .   A
C709       N710 0.022       .   A
C709       H715 0.016       .   A
N710       N711 0.022       .   A
N710       H713 0.015       .   A
N711       H712 0.015       .   A
C636       C637 0.020       .   A
C636       C641 0.020       .   A
C637       C638 0.020       .   A
C637       H644 0.016       .   A
C638       C639 0.020       .   A
C638       H643 0.016       .   A
C639       C640 0.020       .   A
C639       C642 0.020       .   A
C640       C641 0.020       .   A
C640       H646 0.016       .   A
C641       H645 0.016       .   A
C642       C647 0.020       .   A
C642       C651 0.020       .   A
C647       C648 0.020       .   A
C647       H654 0.016       .   A
C648       C649 0.020       .   A
C648       H653 0.016       .   A
C649       C650 0.020       .   A
C649       C652 0.023       .   A
C650       C651 0.020       .   A
C650       H656 0.016       .   A
C651       H655 0.016       .   A
C652       C657 0.023       .   A
C652       N660 0.016       .   A
C652       H664 0.016       .   A
C657       N658 0.022       .   A
C657       H662 0.016       .   A
C657       H663 0.016       .   A
N658       N659 0.016       .   A
N658       C661 0.021       .   A
N659       N660 0.020       .   A
C661       C665 0.018       .   A
C665       C666 0.022       .   A
C666       C667 0.023       .   A
C666       N670 0.022       .   A
C666       H676 0.016       .   A
C667       C668 0.023       .   A
C667       H673 0.016       .   A
C667       H675 0.016       .   A
C668       N669 0.022       .   A
C668       H674 0.016       .   A
N669       N670 0.022       .   A
N669       H672 0.015       .   A
N670       H671 0.015       .   A
C595       C596 0.020       .   A
C595       C600 0.020       .   A
C596       C597 0.020       .   A
C596       H603 0.016       .   A
C597       C598 0.020       .   A
C597       H602 0.016       .   A
C598       C599 0.020       .   A
C598       C601 0.020       .   A
C599       C600 0.020       .   A
C599       H605 0.016       .   A
C600       H604 0.016       .   A
C601       C606 0.020       .   A
C601       C610 0.020       .   A
C606       C607 0.020       .   A
C606       H613 0.016       .   A
C607       C608 0.020       .   A
C607       H612 0.016       .   A
C608       C609 0.020       .   A
C608       C611 0.023       .   A
C609       C610 0.020       .   A
C609       H615 0.016       .   A
C610       H614 0.016       .   A
C611       C616 0.023       .   A
C611       N619 0.016       .   A
C611       H623 0.016       .   A
C616       N617 0.022       .   A
C616       H621 0.016       .   A
C616       H622 0.016       .   A
N617       N618 0.016       .   A
N617       C620 0.021       .   A
N618       N619 0.020       .   A
C620       C624 0.018       .   A
C624       C625 0.022       .   A
C625       C626 0.023       .   A
C625       N629 0.022       .   A
C625       H635 0.016       .   A
C626       C627 0.023       .   A
C626       H632 0.016       .   A
C626       H634 0.016       .   A
C627       N628 0.022       .   A
C627       H633 0.016       .   A
N628       N629 0.022       .   A
N628       H631 0.015       .   A
N629       H630 0.015       .   A
C554       C555 0.020       .   A
C554       C559 0.020       .   A
C555       C556 0.020       .   A
C555       H562 0.016       .   A
C556       C557 0.020       .   A
C556       H561 0.016       .   A
C557       C558 0.020       .   A
C557       C560 0.020       .   A
C558       C559 0.020       .   A
C558       H564 0.016       .   A
C559       H563 0.016       .   A
C560       C565 0.020       .   A
C560       C569 0.020       .   A
C565       C566 0.020       .   A
C565       H572 0.016       .   A
C566       C567 0.020       .   A
C566       H571 0.016       .   A
C567       C568 0.020       .   A
C567       C570 0.023       .   A
C568       C569 0.020       .   A
C568       H574 0.016       .   A
C569       H573 0.016       .   A
C570       C575 0.023       .   A
C570       N578 0.016       .   A
C570       H582 0.016       .   A
C575       N576 0.022       .   A
C575       H580 0.016       .   A
C575       H581 0.016       .   A
N576       N577 0.016       .   A
N576       C579 0.021       .   A
N577       N578 0.020       .   A
C579       C583 0.018       .   A
C583       C584 0.022       .   A
C584       C585 0.023       .   A
C584       N588 0.022       .   A
C584       H594 0.016       .   A
C585       C586 0.023       .   A
C585       H591 0.016       .   A
C585       H593 0.016       .   A
C586       N587 0.022       .   A
C586       H592 0.016       .   A
N587       N588 0.022       .   A
N587       H590 0.015       .   A
N588       H589 0.015       .   A
C513       C514 0.020       .   A
C513       C518 0.020       .   A
C514       C515 0.020       .   A
C514       H521 0.016       .   A
C515       C516 0.020       .   A
C515       H520 0.016       .   A
C516       C517 0.020       .   A
C516       C519 0.020       .   A
C517       C518 0.020       .   A
C517       H523 0.016       .   A
C518       H522 0.016       .   A
C519       C524 0.020       .   A
C519       C528 0.020       .   A
C524       C525 0.020       .   A
C524       H531 0.016       .   A
C525       C526 0.020       .   A
C525       H530 0.016       .   A
C526       C527 0.020       .   A
C526       C529 0.023       .   A
C527       C528 0.020       .   A
C527       H533 0.016       .   A
C528       H532 0.016       .   A
C529       C534 0.023       .   A
C529       N537 0.016       .   A
C529       H541 0.016       .   A
C534       N535 0.022       .   A
C534       H539 0.016       .   A
C534       H540 0.016       .   A
N535       N536 0.016       .   A
N535       C538 0.021       .   A
N536       N537 0.020       .   A
C538       C542 0.018       .   A
C542       C543 0.022       .   A
C543       C544 0.023       .   A
C543       N547 0.022       .   A
C543       H553 0.016       .   A
C544       C545 0.023       .   A
C544       H550 0.016       .   A
C544       H552 0.016       .   A
C545       N546 0.022       .   A
C545       H551 0.016       .   A
N546       N547 0.022       .   A
N546       H549 0.015       .   A
N547       H548 0.015       .   A
C472       C473 0.020       .   A
C472       C477 0.020       .   A
C473       C474 0.020       .   A
C473       H480 0.016       .   A
C474       C475 0.020       .   A
C474       H479 0.016       .   A
C475       C476 0.020       .   A
C475       C478 0.020       .   A
C476       C477 0.020       .   A
C476       H482 0.016       .   A
C477       H481 0.016       .   A
C478       C483 0.020       .   A
C478       C487 0.020       .   A
C483       C484 0.020       .   A
C483       H490 0.016       .   A
C484       C485 0.020       .   A
C484       H489 0.016       .   A
C485       C486 0.020       .   A
C485       C488 0.023       .   A
C486       C487 0.020       .   A
C486       H492 0.016       .   A
C487       H491 0.016       .   A
C488       C493 0.023       .   A
C488       N496 0.016       .   A
C488       H500 0.016       .   A
C493       N494 0.022       .   A
C493       H498 0.016       .   A
C493       H499 0.016       .   A
N494       N495 0.016       .   A
N494       C497 0.021       .   A
N495       N496 0.020       .   A
C497       C501 0.018       .   A
C501       C502 0.022       .   A
C502       C503 0.023       .   A
C502       N506 0.022       .   A
C502       H512 0.016       .   A
C503       C504 0.023       .   A
C503       H509 0.016       .   A
C503       H511 0.016       .   A
C504       N505 0.022       .   A
C504       H510 0.016       .   A
N505       N506 0.022       .   A
N505       H508 0.015       .   A
N506       H507 0.015       .   A
C431       C432 0.020       .   A
C431       C436 0.020       .   A
C432       C433 0.020       .   A
C432       H439 0.016       .   A
C433       C434 0.020       .   A
C433       H438 0.016       .   A
C434       C435 0.020       .   A
C434       C437 0.020       .   A
C435       C436 0.020       .   A
C435       H441 0.016       .   A
C436       H440 0.016       .   A
C437       C442 0.020       .   A
C437       C446 0.020       .   A
C442       C443 0.020       .   A
C442       H449 0.016       .   A
C443       C444 0.020       .   A
C443       H448 0.016       .   A
C444       C445 0.020       .   A
C444       C447 0.023       .   A
C445       C446 0.020       .   A
C445       H451 0.016       .   A
C446       H450 0.016       .   A
C447       C452 0.023       .   A
C447       N455 0.016       .   A
C447       H459 0.016       .   A
C452       N453 0.022       .   A
C452       H457 0.016       .   A
C452       H458 0.016       .   A
N453       N454 0.016       .   A
N453       C456 0.021       .   A
N454       N455 0.020       .   A
C456       C460 0.018       .   A
C460       C461 0.022       .   A
C461       C462 0.023       .   A
C461       N465 0.022       .   A
C461       H471 0.016       .   A
C462       C463 0.023       .   A
C462       H468 0.016       .   A
C462       H470 0.016       .   A
C463       N464 0.022       .   A
C463       H469 0.016       .   A
N464       N465 0.022       .   A
N464       H467 0.015       .   A
N465       H466 0.015       .   A
C390       C391 0.020       .   A
C390       C395 0.020       .   A
C391       C392 0.020       .   A
C391       H398 0.016       .   A
C392       C393 0.020       .   A
C392       H397 0.016       .   A
C393       C394 0.020       .   A
C393       C396 0.020       .   A
C394       C395 0.020       .   A
C394       H400 0.016       .   A
C395       H399 0.016       .   A
C396       C401 0.020       .   A
C396       C405 0.020       .   A
C401       C402 0.020       .   A
C401       H408 0.016       .   A
C402       C403 0.020       .   A
C402       H407 0.016       .   A
C403       C404 0.020       .   A
C403       C406 0.023       .   A
C404       C405 0.020       .   A
C404       H410 0.016       .   A
C405       H409 0.016       .   A
C406       C411 0.023       .   A
C406       N414 0.016       .   A
C406       H418 0.016       .   A
C411       N412 0.022       .   A
C411       H416 0.016       .   A
C411       H417 0.016       .   A
N412       N413 0.016       .   A
N412       C415 0.021       .   A
N413       N414 0.020       .   A
C415       C419 0.018       .   A
C419       C420 0.022       .   A
C420       C421 0.023       .   A
C420       N424 0.022       .   A
C420       H430 0.016       .   A
C421       C422 0.023       .   A
C421       H427 0.016       .   A
C421       H429 0.016       .   A
C422       N423 0.022       .   A
C422       H428 0.016       .   A
N423       N424 0.022       .   A
N423       H426 0.015       .   A
N424       H425 0.015       .   A
C349       C350 0.020       .   A
C349       C354 0.020       .   A
C350       C351 0.020       .   A
C350       H357 0.016       .   A
C351       C352 0.020       .   A
C351       H356 0.016       .   A
C352       C353 0.020       .   A
C352       C355 0.020       .   A
C353       C354 0.020       .   A
C353       H359 0.016       .   A
C354       H358 0.016       .   A
C355       C360 0.020       .   A
C355       C364 0.020       .   A
C360       C361 0.020       .   A
C360       H367 0.016       .   A
C361       C362 0.020       .   A
C361       H366 0.016       .   A
C362       C363 0.020       .   A
C362       C365 0.023       .   A
C363       C364 0.020       .   A
C363       H369 0.016       .   A
C364       H368 0.016       .   A
C365       C370 0.023       .   A
C365       N373 0.016       .   A
C365       H377 0.016       .   A
C370       N371 0.022       .   A
C370       H375 0.016       .   A
C370       H376 0.016       .   A
N371       N372 0.016       .   A
N371       C374 0.021       .   A
N372       N373 0.020       .   A
C374       C378 0.018       .   A
C378       C379 0.022       .   A
C379       C380 0.023       .   A
C379       N383 0.022       .   A
C379       H389 0.016       .   A
C380       C381 0.023       .   A
C380       H386 0.016       .   A
C380       H388 0.016       .   A
C381       N382 0.022       .   A
C381       H387 0.016       .   A
N382       N383 0.022       .   A
N382       H385 0.015       .   A
N383       H384 0.015       .   A
C308       C309 0.020       .   A
C308       C313 0.020       .   A
C309       C310 0.020       .   A
C309       H316 0.016       .   A
C310       C311 0.020       .   A
C310       H315 0.016       .   A
C311       C312 0.020       .   A
C311       C314 0.020       .   A
C312       C313 0.020       .   A
C312       H318 0.016       .   A
C313       H317 0.016       .   A
C314       C319 0.020       .   A
C314       C323 0.020       .   A
C319       C320 0.020       .   A
C319       H326 0.016       .   A
C320       C321 0.020       .   A
C320       H325 0.016       .   A
C321       C322 0.020       .   A
C321       C324 0.023       .   A
C322       C323 0.020       .   A
C322       H328 0.016       .   A
C323       H327 0.016       .   A
C324       C329 0.023       .   A
C324       N332 0.016       .   A
C324       H336 0.016       .   A
C329       N330 0.022       .   A
C329       H334 0.016       .   A
C329       H335 0.016       .   A
N330       N331 0.016       .   A
N330       C333 0.021       .   A
N331       N332 0.020       .   A
C333       C337 0.018       .   A
C337       C338 0.022       .   A
C338       C339 0.023       .   A
C338       N342 0.022       .   A
C338       H348 0.016       .   A
C339       C340 0.023       .   A
C339       H345 0.016       .   A
C339       H347 0.016       .   A
C340       N341 0.022       .   A
C340       H346 0.016       .   A
N341       N342 0.022       .   A
N341       H344 0.015       .   A
N342       H343 0.015       .   A
C267       C268 0.020       .   A
C267       C272 0.020       .   A
C268       C269 0.020       .   A
C268       H275 0.016       .   A
C269       C270 0.020       .   A
C269       H274 0.016       .   A
C270       C271 0.020       .   A
C270       C273 0.020       .   A
C271       C272 0.020       .   A
C271       H277 0.016       .   A
C272       H276 0.016       .   A
C273       C278 0.020       .   A
C273       C282 0.020       .   A
C278       C279 0.020       .   A
C278       H285 0.016       .   A
C279       C280 0.020       .   A
C279       H284 0.016       .   A
C280       C281 0.020       .   A
C280       C283 0.023       .   A
C281       C282 0.020       .   A
C281       H287 0.016       .   A
C282       H286 0.016       .   A
C283       C288 0.023       .   A
C283       N291 0.016       .   A
C283       H295 0.016       .   A
C288       N289 0.022       .   A
C288       H293 0.016       .   A
C288       H294 0.016       .   A
N289       N290 0.016       .   A
N289       C292 0.021       .   A
N290       N291 0.020       .   A
C292       C296 0.018       .   A
C296       C297 0.022       .   A
C297       C298 0.023       .   A
C297       N301 0.022       .   A
C297       H307 0.016       .   A
C298       C299 0.023       .   A
C298       H304 0.016       .   A
C298       H306 0.016       .   A
C299       N300 0.022       .   A
C299       H305 0.016       .   A
N300       N301 0.022       .   A
N300       H303 0.015       .   A
N301       H302 0.015       .   A
C226       C227 0.020       .   A
C226       C231 0.020       .   A
C227       C228 0.020       .   A
C227       H234 0.016       .   A
C228       C229 0.020       .   A
C228       H233 0.016       .   A
C229       C230 0.020       .   A
C229       C232 0.020       .   A
C230       C231 0.020       .   A
C230       H236 0.016       .   A
C231       H235 0.016       .   A
C232       C237 0.020       .   A
C232       C241 0.020       .   A
C237       C238 0.020       .   A
C237       H244 0.016       .   A
C238       C239 0.020       .   A
C238       H243 0.016       .   A
C239       C240 0.020       .   A
C239       C242 0.023       .   A
C240       C241 0.020       .   A
C240       H246 0.016       .   A
C241       H245 0.016       .   A
C242       C247 0.023       .   A
C242       N250 0.016       .   A
C242       H254 0.016       .   A
C247       N248 0.022       .   A
C247       H252 0.016       .   A
C247       H253 0.016       .   A
N248       N249 0.016       .   A
N248       C251 0.021       .   A
N249       N250 0.020       .   A
C251       C255 0.018       .   A
C255       C256 0.022       .   A
C256       C257 0.023       .   A
C256       N260 0.022       .   A
C256       H266 0.016       .   A
C257       C258 0.023       .   A
C257       H263 0.016       .   A
C257       H265 0.016       .   A
C258       N259 0.022       .   A
C258       H264 0.016       .   A
N259       N260 0.022       .   A
N259       H262 0.015       .   A
N260       H261 0.015       .   A
C185       C186 0.020       .   A
C185       C190 0.020       .   A
C186       C187 0.020       .   A
C186       H193 0.016       .   A
C187       C188 0.020       .   A
C187       H192 0.016       .   A
C188       C189 0.020       .   A
C188       C191 0.020       .   A
C189       C190 0.020       .   A
C189       H195 0.016       .   A
C190       H194 0.016       .   A
C191       C196 0.020       .   A
C191       C200 0.020       .   A
C196       C197 0.020       .   A
C196       H203 0.016       .   A
C197       C198 0.020       .   A
C197       H202 0.016       .   A
C198       C199 0.020       .   A
C198       C201 0.023       .   A
C199       C200 0.020       .   A
C199       H205 0.016       .   A
C200       H204 0.016       .   A
C201       C206 0.023       .   A
C201       N209 0.016       .   A
C201       H213 0.016       .   A
C206       N207 0.022       .   A
C206       H211 0.016       .   A
C206       H212 0.016       .   A
N207       N208 0.016       .   A
N207       C210 0.021       .   A
N208       N209 0.020       .   A
C210       C214 0.018       .   A
C214       C215 0.022       .   A
C215       C216 0.023       .   A
C215       N219 0.022       .   A
C215       H225 0.016       .   A
C216       C217 0.023       .   A
C216       H222 0.016       .   A
C216       H224 0.016       .   A
C217       N218 0.022       .   A
C217       H223 0.016       .   A
N218       N219 0.022       .   A
N218       H221 0.015       .   A
N219       H220 0.015       .   A
