data_pcu_v1-6c_Zn_1_Ch_1-9_fer_tobacco
_audit_creation_date              2021-04-07
_audit_creation_method            'tobacco_3.0'
_symmetry_space_group_name_H-M    'P1'
_symmetry_Int_Tables_number       1
_symmetry_cell_setting            triclinic
loop_
_symmetry_equiv_pos_as_xyz
  x,y,z
_cell_length_a                    43.5145449804335
_cell_length_b                    43.5145449804335
_cell_length_c                    43.5145449804335
_cell_angle_alpha                 90.0
_cell_angle_beta                  90.0
_cell_angle_gamma                 90.0
loop_
_atom_site_label
_atom_site_type_symbol
_atom_site_fract_x
_atom_site_fract_y
_atom_site_fract_z
_atom_site_charge
Zn1       Zn   -0.0257660973    0.0257660973    0.0257660973          1.4972
Zn2       Zn    0.0257660973    0.0257660973   -0.0257660973          1.4936
Zn3       Zn    0.0257660973   -0.0257660973    0.0257660973          1.4911
Zn4       Zn   -0.0257660973   -0.0257660973   -0.0257660973          1.4948
O5         O    0.0000000000    0.0000000000    0.0000000000          -2.311
O6         O   -0.0189361971    0.0688643303    0.0189361971         -1.2173
O7         O    0.0688643303    0.0189361971   -0.0189361971         -1.2155
O8         O    0.0189361971   -0.0189361971    0.0688643303         -1.2107
O9         O    0.0189361971    0.0688643303   -0.0189361971         -1.2174
O10        O   -0.0189361971    0.0189361971    0.0688643303         -1.2134
O11        O    0.0688643303   -0.0189361971    0.0189361971         -1.2193
O12        O   -0.0189361971   -0.0688643303   -0.0189361971         -1.2132
O13        O    0.0189361971    0.0189361971   -0.0688643303         -1.2208
O14        O    0.0189361971   -0.0688643303    0.0189361971         -1.2147
O15        O   -0.0189361971   -0.0189361971   -0.0688643303         -1.2193
O16        O   -0.0688643303   -0.0189361971   -0.0189361971         -1.2184
O17        O   -0.0688643303    0.0189361971    0.0189361971         -1.2163
C18        C   -0.0000000000    0.0823356880    0.0000000000          0.3016
C19        C    0.0823356880   -0.0000000000   -0.0000000000          0.3065
C20        C   -0.0000000000   -0.0000000000    0.0823356880          0.2961
C21        C    0.0000000000   -0.0823356880   -0.0000000000          0.2999
C22        C    0.0000000000    0.0000000000   -0.0823356880          0.3112
C23        C   -0.0823356880    0.0000000000    0.0000000000          0.3017
Zn24      Zn    0.9742339027    0.0257660973    0.4742339027          1.4972
Zn25      Zn    1.0257660973   -0.0257660973    0.4742339027          1.4936
Zn26      Zn    1.0257660973    0.0257660973    0.5257660973          1.4911
Zn27      Zn    0.9742339027   -0.0257660973    0.5257660973          1.4948
O28        O    1.0000000000    0.0000000000    0.5000000000          -2.311
O29        O    0.9810638029    0.0189361971    0.4311356697         -1.2173
O30        O    1.0688643303   -0.0189361971    0.4810638029         -1.2155
O31        O    1.0189361971    0.0688643303    0.5189361971         -1.2107
O32        O    1.0189361971   -0.0189361971    0.4311356697         -1.2174
O33        O    0.9810638029    0.0688643303    0.4810638029         -1.2134
O34        O    1.0688643303    0.0189361971    0.5189361971         -1.2193
O35        O    0.9810638029   -0.0189361971    0.5688643303         -1.2132
O36        O    1.0189361971   -0.0688643303    0.4810638029         -1.2208
O37        O    1.0189361971    0.0189361971    0.5688643303         -1.2147
O38        O    0.9810638029   -0.0688643303    0.5189361971         -1.2193
O39        O    0.9311356697   -0.0189361971    0.5189361971         -1.2184
O40        O    0.9311356697    0.0189361971    0.4810638029         -1.2163
C41        C    1.0000000000    0.0000000000    0.4176643120          0.3016
C42        C    1.0823356880    0.0000000000    0.5000000000          0.3065
C43        C    1.0000000000    0.0823356880    0.5000000000          0.2961
C44        C    1.0000000000    0.0000000000    0.5823356880          0.2999
C45        C    1.0000000000   -0.0823356880    0.5000000000          0.3112
C46        C    0.9176643120    0.0000000000    0.5000000000          0.3017
Zn47      Zn    1.0257660973    0.4742339027   -0.0257660973          1.4972
Zn48      Zn    0.9742339027    0.4742339027    0.0257660973          1.4936
Zn49      Zn    1.0257660973    0.5257660973    0.0257660973          1.4911
Zn50      Zn    0.9742339027    0.5257660973   -0.0257660973          1.4948
O51        O    1.0000000000    0.5000000000    0.0000000000          -2.311
O52        O    1.0189361971    0.4311356697   -0.0189361971         -1.2173
O53        O    0.9810638029    0.4810638029    0.0688643303         -1.2155
O54        O    1.0688643303    0.5189361971    0.0189361971         -1.2107
O55        O    0.9810638029    0.4311356697    0.0189361971         -1.2174
O56        O    1.0688643303    0.4810638029   -0.0189361971         -1.2134
O57        O    1.0189361971    0.5189361971    0.0688643303         -1.2193
O58        O    0.9810638029    0.5688643303   -0.0189361971         -1.2132
O59        O    0.9311356697    0.4810638029    0.0189361971         -1.2208
O60        O    1.0189361971    0.5688643303    0.0189361971         -1.2147
O61        O    0.9311356697    0.5189361971   -0.0189361971         -1.2193
O62        O    0.9810638029    0.5189361971   -0.0688643303         -1.2184
O63        O    1.0189361971    0.4810638029   -0.0688643303         -1.2163
C64        C    1.0000000000    0.4176643120    0.0000000000          0.3016
C65        C    1.0000000000    0.5000000000    0.0823356880          0.3065
C66        C    1.0823356880    0.5000000000    0.0000000000          0.2961
C67        C    1.0000000000    0.5823356880    0.0000000000          0.2999
C68        C    0.9176643120    0.5000000000    0.0000000000          0.3112
C69        C    1.0000000000    0.5000000000   -0.0823356880          0.3017
Zn70      Zn    0.9742339027    0.4742339027    0.5257660973          1.4972
Zn71      Zn    1.0257660973    0.4742339027    0.4742339027          1.4936
Zn72      Zn    0.9742339027    0.5257660973    0.4742339027          1.4911
Zn73      Zn    1.0257660973    0.5257660973    0.5257660973          1.4948
O74        O    1.0000000000    0.5000000000    0.5000000000          -2.311
O75        O    0.9810638029    0.4311356697    0.5189361971         -1.2173
O76        O    1.0189361971    0.4810638029    0.4311356697         -1.2155
O77        O    0.9311356697    0.5189361971    0.4810638029         -1.2107
O78        O    1.0189361971    0.4311356697    0.4810638029         -1.2174
O79        O    0.9311356697    0.4810638029    0.5189361971         -1.2134
O80        O    0.9810638029    0.5189361971    0.4311356697         -1.2193
O81        O    1.0189361971    0.5688643303    0.5189361971         -1.2132
O82        O    1.0688643303    0.4810638029    0.4810638029         -1.2208
O83        O    0.9810638029    0.5688643303    0.4810638029         -1.2147
O84        O    1.0688643303    0.5189361971    0.5189361971         -1.2193
O85        O    1.0189361971    0.5189361971    0.5688643303         -1.2184
O86        O    0.9810638029    0.4810638029    0.5688643303         -1.2163
C87        C    1.0000000000    0.4176643120    0.5000000000          0.3016
C88        C    1.0000000000    0.5000000000    0.4176643120          0.3065
C89        C    0.9176643120    0.5000000000    0.5000000000          0.2961
C90        C    1.0000000000    0.5823356880    0.5000000000          0.2999
C91        C    1.0823356880    0.5000000000    0.5000000000          0.3112
C92        C    1.0000000000    0.5000000000    0.5823356880          0.3017
Zn93      Zn    0.4742339027    0.9742339027   -0.0257660973          1.4972
Zn94      Zn    0.4742339027    1.0257660973    0.0257660973          1.4936
Zn95      Zn    0.5257660973    0.9742339027    0.0257660973          1.4911
Zn96      Zn    0.5257660973    1.0257660973   -0.0257660973          1.4948
O97        O    0.5000000000    1.0000000000    0.0000000000          -2.311
O98        O    0.4311356697    0.9810638029   -0.0189361971         -1.2173
O99        O    0.4810638029    1.0189361971    0.0688643303         -1.2155
O100       O    0.5189361971    0.9311356697    0.0189361971         -1.2107
O101       O    0.4311356697    1.0189361971    0.0189361971         -1.2174
O102       O    0.4810638029    0.9311356697   -0.0189361971         -1.2134
O103       O    0.5189361971    0.9810638029    0.0688643303         -1.2193
O104       O    0.5688643303    1.0189361971   -0.0189361971         -1.2132
O105       O    0.4810638029    1.0688643303    0.0189361971         -1.2208
O106       O    0.5688643303    0.9810638029    0.0189361971         -1.2147
O107       O    0.5189361971    1.0688643303   -0.0189361971         -1.2193
O108       O    0.5189361971    1.0189361971   -0.0688643303         -1.2184
O109       O    0.4810638029    0.9810638029   -0.0688643303         -1.2163
C110       C    0.4176643120    1.0000000000    0.0000000000          0.3016
C111       C    0.5000000000    1.0000000000    0.0823356880          0.3065
C112       C    0.5000000000    0.9176643120    0.0000000000          0.2961
C113       C    0.5823356880    1.0000000000    0.0000000000          0.2999
C114       C    0.5000000000    1.0823356880    0.0000000000          0.3112
C115       C    0.5000000000    1.0000000000   -0.0823356880          0.3017
Zn116     Zn    0.5257660973    1.0257660973    0.4742339027          1.4972
Zn117     Zn    0.4742339027    1.0257660973    0.5257660973          1.4936
Zn118     Zn    0.4742339027    0.9742339027    0.4742339027          1.4911
Zn119     Zn    0.5257660973    0.9742339027    0.5257660973          1.4948
O120       O    0.5000000000    1.0000000000    0.5000000000          -2.311
O121       O    0.5189361971    1.0688643303    0.4810638029         -1.2173
O122       O    0.4311356697    1.0189361971    0.5189361971         -1.2155
O123       O    0.4810638029    0.9810638029    0.4311356697         -1.2107
O124       O    0.4810638029    1.0688643303    0.5189361971         -1.2174
O125       O    0.5189361971    1.0189361971    0.4311356697         -1.2134
O126       O    0.4311356697    0.9810638029    0.4810638029         -1.2193
O127       O    0.5189361971    0.9311356697    0.5189361971         -1.2132
O128       O    0.4810638029    1.0189361971    0.5688643303         -1.2208
O129       O    0.4810638029    0.9311356697    0.4810638029         -1.2147
O130       O    0.5189361971    0.9810638029    0.5688643303         -1.2193
O131       O    0.5688643303    0.9810638029    0.5189361971         -1.2184
O132       O    0.5688643303    1.0189361971    0.4810638029         -1.2163
C133       C    0.5000000000    1.0823356880    0.5000000000          0.3016
C134       C    0.4176643120    1.0000000000    0.5000000000          0.3065
C135       C    0.5000000000    1.0000000000    0.4176643120          0.2961
C136       C    0.5000000000    0.9176643120    0.5000000000          0.2999
C137       C    0.5000000000    1.0000000000    0.5823356880          0.3112
C138       C    0.5823356880    1.0000000000    0.5000000000          0.3017
Zn139     Zn    0.4742339027    0.5257660973   -0.0257660973          1.4972
Zn140     Zn    0.4742339027    0.4742339027    0.0257660973          1.4936
Zn141     Zn    0.5257660973    0.4742339027   -0.0257660973          1.4911
Zn142     Zn    0.5257660973    0.5257660973    0.0257660973          1.4948
O143       O    0.5000000000    0.5000000000    0.0000000000          -2.311
O144       O    0.4311356697    0.5189361971   -0.0189361971         -1.2173
O145       O    0.4810638029    0.4311356697    0.0189361971         -1.2155
O146       O    0.5189361971    0.4810638029   -0.0688643303         -1.2107
O147       O    0.4311356697    0.4810638029    0.0189361971         -1.2174
O148       O    0.4810638029    0.5189361971   -0.0688643303         -1.2134
O149       O    0.5189361971    0.4311356697   -0.0189361971         -1.2193
O150       O    0.5688643303    0.5189361971    0.0189361971         -1.2132
O151       O    0.4810638029    0.4810638029    0.0688643303         -1.2208
O152       O    0.5688643303    0.4810638029   -0.0189361971         -1.2147
O153       O    0.5189361971    0.5189361971    0.0688643303         -1.2193
O154       O    0.5189361971    0.5688643303    0.0189361971         -1.2184
O155       O    0.4810638029    0.5688643303   -0.0189361971         -1.2163
C156       C    0.4176643120    0.5000000000    0.0000000000          0.3016
C157       C    0.5000000000    0.4176643120    0.0000000000          0.3065
C158       C    0.5000000000    0.5000000000   -0.0823356880          0.2961
C159       C    0.5823356880    0.5000000000    0.0000000000          0.2999
C160       C    0.5000000000    0.5000000000    0.0823356880          0.3112
C161       C    0.5000000000    0.5823356880    0.0000000000          0.3017
Zn162     Zn    0.4742339027    0.5257660973    0.4742339027          1.4972
Zn163     Zn    0.5257660973    0.5257660973    0.5257660973          1.4936
Zn164     Zn    0.4742339027    0.4742339027    0.5257660973          1.4911
Zn165     Zn    0.5257660973    0.4742339027    0.4742339027          1.4948
O166       O    0.5000000000    0.5000000000    0.5000000000          -2.311
O167       O    0.4810638029    0.5688643303    0.4810638029         -1.2173
O168       O    0.5189361971    0.5189361971    0.5688643303         -1.2155
O169       O    0.4311356697    0.4810638029    0.5189361971         -1.2107
O170       O    0.5189361971    0.5688643303    0.5189361971         -1.2174
O171       O    0.4311356697    0.5189361971    0.4810638029         -1.2134
O172       O    0.4810638029    0.4810638029    0.5688643303         -1.2193
O173       O    0.5189361971    0.4311356697    0.4810638029         -1.2132
O174       O    0.5688643303    0.5189361971    0.5189361971         -1.2208
O175       O    0.4810638029    0.4311356697    0.5189361971         -1.2147
O176       O    0.5688643303    0.4810638029    0.4810638029         -1.2193
O177       O    0.5189361971    0.4810638029    0.4311356697         -1.2184
O178       O    0.4810638029    0.5189361971    0.4311356697         -1.2163
C179       C    0.5000000000    0.5823356880    0.5000000000          0.3016
C180       C    0.5000000000    0.5000000000    0.5823356880          0.3065
C181       C    0.4176643120    0.5000000000    0.5000000000          0.2961
C182       C    0.5000000000    0.4176643120    0.5000000000          0.2999
C183       C    0.5823356880    0.5000000000    0.5000000000          0.3112
C184       C    0.5000000000    0.5000000000    0.4176643120          0.3017
C1059      C    0.5000000000    0.5000000000   -0.1177261535          0.5272
C1060      C    0.5024669320    0.4743299883   -0.1347706502          0.5254
C1061      C    0.5031798176    0.4733448538   -0.1658085988          0.5245
C1062      C    0.5016569229    0.4990265697   -0.1838272743          0.5252
C1063      C    0.4991296498    0.5254951864   -0.1666721844           0.527
C1064      C    0.4980254541    0.5258540192   -0.1347868596         -0.4718
C1065      C    0.5031907338    0.4938477712   -0.2215380769          0.5236
C1066      C    0.5063966203    0.4408534722   -0.1789142007          0.5223
H1067      H    0.5040744846    0.4522783096   -0.1231917007          0.5245
C1068      C    0.4947762449    0.5526570066   -0.1198598035         -0.4694
C1069      C    0.4974863601    0.5529402664   -0.1806149047         -0.4722
C1070      C    0.4943422613    0.5792861016   -0.1652756936         -0.4699
C1071      C    0.4927949834    0.5789995169   -0.1348455104         -0.4684
H1072      H    0.4987126966    0.5546630260   -0.2051670128          0.5265
F1073      F    0.4926273398    0.6060559833   -0.1804050034         -0.4691
H1074      H    0.4900346829    0.6002823528   -0.1220082263         -0.4663
H1075      H    0.4934055472    0.5539533764   -0.0949872771         -0.4681
H1076      H    0.5100849713    0.4235722515   -0.1610391694          0.5197
H1077      H    0.5259828340    0.4389756239   -0.1944406077          0.5063
H1078      H    0.4855075610    0.4337403174   -0.1908114455         -0.4609
C1079      C    0.5056953143    0.5163452521   -0.2512146341           0.521
C1080      C    0.4894777427    0.5005910447   -0.2811157919          -0.466
N1081      N    0.4834126949    0.4702802907   -0.2664820546         -0.4605
N1082      N    0.4775274867    0.4751423187   -0.2334244093         -0.4555
C1083      C    0.5035241261    0.4941695953   -0.3163440211          0.5224
H1084      H    0.4773947483    0.4537672923   -0.2239503268         -0.4549
H1085      H    0.5032038234    0.4577449357   -0.2665492334          0.5237
H1086      H    0.4929858963    0.5375576422   -0.2474530031          -0.469
H1087      H    0.4671023627    0.5116646963   -0.2839215350         -0.4481
H1088      H    0.5296619435    0.5224839107   -0.2557268547          0.5015
H1089      H    0.5238294332    0.4797833104   -0.2241819193          0.5071
C1090      C    0.4978807868    0.5142877494   -0.3486128657          0.5264
N1091      N    0.5000000000    0.5000000000   -0.3822738465          0.5245
N1092      N    0.5050774126    0.4791603296   -0.3689298038          0.5209
N1093      N    0.5036455274    0.4805040651   -0.3379552282          0.5223
H1094      H    0.5143127615    0.5335171538   -0.3481065610          0.5128
H1095      H    0.4753735822    0.5256276112   -0.3468927074         -0.4556
H1096      H    0.4963272832    0.4703810256   -0.3202957002         -0.4715
C1021      C    0.5000000000    0.5000000000    0.1177261535          0.5272
C1022      C    0.4742902710    0.5020112400    0.1347706502          0.5254
C1023      C    0.4732926471    0.5027065403    0.1658085988          0.5245
C1024      C    0.4989973343    0.5016393968    0.1838272743          0.5252
C1025      C    0.5255066130    0.4995819898    0.1666721844           0.527
C1026      C    0.5258849743    0.4984843323    0.1347868596         -0.4718
C1027      C    0.4937921455    0.5030811110    0.2215380769          0.5236
C1028      C    0.4407493209    0.5053465438    0.1789142007          0.5223
H1029      H    0.4522135484    0.5032274135    0.1231917007          0.5245
C1030      C    0.5527413759    0.4957110336    0.1198598035         -0.4694
C1031      C    0.5529765224    0.4984257465    0.1806149047         -0.4722
C1032      C    0.5793739793    0.4957494333    0.1652756936         -0.4699
C1033      C    0.5791148835    0.4941973156    0.1348455104         -0.4684
H1034      H    0.5546772596    0.4996824464    0.2051670128          0.5265
F1035      F    0.6061700671    0.4945095936    0.1804050034         -0.4691
H1036      H    0.6004433303    0.4918149388    0.1220082263         -0.4663
H1037      H    0.5540618535    0.4943635450    0.0949872771         -0.4681
H1038      H    0.4234053992    0.5087278009    0.1610391694          0.5197
H1039      H    0.4385243712    0.5248963693    0.1944406077          0.5063
H1040      H    0.4340077902    0.4843346059    0.1908114455 -0.45449999999999996
C1041      C    0.5162416641    0.5059843308    0.2512146341           0.521
C1042      C    0.5007775829    0.4894898812    0.2811157919          -0.466
N1043      N    0.4705791717    0.4828881717    0.2664820546         -0.4605
N1044      N    0.4755448196    0.4770901260    0.2334244093         -0.4555
C1045      C    0.4941080057    0.5034201590    0.3163440211          0.5224
H1046      H    0.4541755101    0.4765782839    0.2239503268         -0.4549
H1047      H    0.4576947573    0.5024538497    0.2665492334          0.5237
H1048      H    0.5376761418    0.4936531522    0.2474530031          -0.469
H1049      H    0.5122463603    0.4673144323    0.2839215350         -0.4481
H1050      H    0.5219542657    0.5300560701    0.2557268547          0.5015
H1051      H    0.4793638327    0.5234671052    0.2241819193          0.5071
C1052      C    0.5143230899    0.4981345392    0.3486128657          0.5264
N1053      N    0.5000000000    0.5000000000    0.3822738465          0.5245
N1054      N    0.4790735508    0.5047069848    0.3689298038          0.5209
N1055      N    0.4804424720    0.5032991584    0.3379552282          0.5223
H1056      H    0.5332580187    0.5149049971    0.3481065610          0.5128
H1057      H    0.5260603736    0.4758320080    0.3468927074         -0.4556
H1058      H    0.4704508272    0.4958025151    0.3202957002         -0.4715
C983       C    0.5000000000    0.6177261535    0.5000000000          0.5272
C984       C    0.4974099247    0.6347706502    0.4743421208          0.5254
C985       C    0.4979168517    0.6658085988    0.4732368060          0.5245
C986       C    0.5014350974    0.6838272743    0.4987219328          0.5252
C987       C    0.5041218418    0.6666721844    0.5251748378           0.527
C988       C    0.5031089038    0.6347868596    0.5257422582         -0.4718
C989       C    0.5019287602    0.7215380769    0.4933433803          0.5236
C990       C    0.4947310196    0.6789142007    0.4407423730          0.5223
H991       H    0.4946831213    0.6231917007    0.4524007147          0.5245
C992       C    0.5051528464    0.6198598035    0.5526639928         -0.4694
C993       C    0.5078661327    0.6806149047    0.5524129197         -0.4722
C994       C    0.5099239501    0.6652756936    0.5788657792         -0.4699
C995       C    0.5083504941    0.6348455104    0.5788866604         -0.4684
H996       H    0.5094050916    0.7051670128    0.5538632325          0.5265
F997       F    0.5134662196    0.6804050034    0.6054556241         -0.4691
H998       H    0.5097966718    0.6220082263    0.6002989683         -0.4663
H999       H    0.5040614935    0.5949872771    0.5542029326         -0.4681
H1000      H    0.4949759751    0.6610391694    0.4230736290          0.5197
H1001      H    0.5135741788    0.6944406077    0.4350783255          0.5063
H1002      H    0.4728554452    0.6908114455    0.4378425429         -0.4609
C1003      C    0.5087756317    0.7512146341    0.5149195227           0.521
C1004      C    0.4897953998    0.7811157919    0.5026331288          -0.466
N1005      N    0.4779317364    0.7664820546    0.4740887756         -0.4605
N1006      N    0.4731085225    0.7334244093    0.4800058356         -0.4555
C1007      C    0.5023185473    0.8163440211    0.4935939542          0.5224
H1008      H    0.4688069395    0.7239503268    0.4590676944         -0.4549
H1009      H    0.4948960279    0.7665492334    0.4579321452          0.5237
H1010      H    0.5004502375    0.7474530031    0.5382043378          -0.469
H1011      H    0.4700112891    0.7839215350    0.5178604842         -0.4481
H1012      H    0.5334794274    0.7557268547    0.5162629970          0.5015
H1013      H    0.5194259170    0.7241819193    0.4755216386          0.5071
C1014      C    0.5007098279    0.8486128657    0.5144266071          0.5264
N1015      N    0.5000000000    0.8822738465    0.5000000000          0.5245
N1016      N    0.5009128679    0.8689298038    0.4785701458          0.5209
N1017      N    0.4997707476    0.8379552282    0.4801674815          0.5223
H1018      H    0.5205785350    0.8481065610    0.5300795386          0.5128
H1019      H    0.4808483788    0.8468927074    0.5299407801         -0.4556
H1020      H    0.4906176727    0.8202957002    0.4716672553         -0.4715
C945       C    0.5000000000    1.3822738465    0.5000000000          0.5272
C946       C    0.5238780751    1.3652293498    0.4902597339          0.5254
C947       C    0.5246167701    1.3341914012    0.4892938014          0.5245
C948       C    0.5004561739    1.3161727257    0.4981332205          0.5252
C949       C    0.4758305267    1.3333278156    0.5081607964           0.527
C950       C    0.4758041714    1.3652131404    0.5093215353         -0.4718
C951       C    0.5049756835    1.2784619231    0.4951757617          0.5236
C952       C    0.5548129298    1.3210857993    0.4768748788          0.5223
H953       H    0.5445374463    1.3768082993    0.4823824793          0.5245
C954       C    0.4510657399    1.3801401965    0.5201366866         -0.4694
C955       C    0.4500155592    1.3193850953    0.5176223118         -0.4722
C956       C    0.4256847857    1.3347243064    0.5282054043         -0.4699
C957       C    0.4264039584    1.3651544896    0.5296050436         -0.4684
H958       H    0.4480130369    1.2948329872    0.5169428223          0.5265
F959       F    0.4005371181    1.3195949966    0.5375414815         -0.4691
H960       H    0.4068122873    1.3779917737    0.5383654537         -0.4663
H961       H    0.4502179911    1.4050127229    0.5218221269         -0.4681
H962       H    0.5703050879    1.3389608306    0.4683756108          0.5197
H963       H    0.5509825955    1.3055593923    0.4575752773          0.5063
H964       H    0.5676293888    1.3091885545    0.4948384016         -0.4609
C965       C    0.4827075149    1.2487853659    0.4992424849           0.521
C966       C    0.5024579239    1.2188842081    0.5102482117          -0.466
N967       N    0.5332329997    1.2335179454    0.5073462603         -0.4605
N968       N    0.5302674625    1.2665755907    0.5143805038         -0.4555
C969       C    0.5045716214    1.1836559789    0.4949489247          0.5224
H970       H    0.5507788769    1.2760496732    0.5083645874         -0.4549
H971       H    0.5395516666    1.2334507666    0.4847874851          0.5237
H972       H    0.4660426345    1.2525469969    0.5175120377          -0.469
H973       H    0.4982819931    1.2160784650    0.5348621303         -0.4481
H974       H    0.4699399653    1.2442731453    0.4780511630          0.5015
H975       H    0.5125153602    1.2758180807    0.4713657166          0.5071
C976       C    0.4869240651    1.1513871343    0.5061360226          0.5264
N977       N    0.5000000000    1.1177261535    0.5000000000          0.5245
N978       N    0.5185012775    1.1310701962    0.4891475943          0.5209
N979       N    0.5176257462    1.1620447718    0.4909052533          0.5223
H980       H    0.4637834509    1.1518934390    0.4959236887          0.5128
H981       H    0.4825310405    1.1531072926    0.5309527117         -0.4556
H982       H    0.5294249390    1.1797042998    0.4950054576         -0.4715
C907       C    0.5000000000    0.8822738465    0.0000000000          0.5272
C908       C    0.4745420392    0.8652293498   -0.0041143024          0.5254
C909       C    0.4734084829    0.8341914012   -0.0036741364          0.5245
C910       C    0.4986386931    0.8161727257    0.0013563937          0.5252
C911       C    0.5248845071    0.8333278156    0.0056145651           0.527
C912       C    0.5255112755    0.8652131404    0.0046372367         -0.4718
C913       C    0.4932402821    0.7784619231    0.0015286975          0.5236
C914       C    0.4411616136    0.8210857993   -0.0087904942          0.5223
H915       H    0.4528020950    0.8768082993   -0.0081436432          0.5245
C916       C    0.5522633875    0.8801401965    0.0082816838         -0.4694
C917       C    0.5518510889    0.8193850953    0.0109751889         -0.4722
C918       C    0.5781343323    0.8347243064    0.0146055481         -0.4699
C919       C    0.5782489310    0.8651544896    0.0130361321         -0.4684
H920       H    0.5532071257    0.7948329872    0.0125978306          0.5265
F921       F    0.6044658662    0.8195949966    0.0197258842         -0.4691
H922       H    0.5995370234    0.8779917737    0.0157555962         -0.4663
H923       H    0.5538646214    0.9050127229    0.0072839680         -0.4681
H924       H    0.4235096672    0.8389608306   -0.0095987690          0.5197
H925       H    0.4343848570    0.8055593923    0.0096816917          0.5063
H926       H    0.4395703955    0.8091885545   -0.0307999875         -0.4609
C927       C    0.5143701166    0.7487853659    0.0096490216           0.521
C928       C    0.5032364931    0.7188842081   -0.0100295735          -0.466
N929       N    0.4754497552    0.7335179454   -0.0235729779         -0.4605
N930       N    0.4816436939    0.7665755907   -0.0280350531         -0.4555
C931       C    0.4934671853    0.6836559789    0.0019327224          0.5224
H932       H    0.4609990656    0.7760496732   -0.0335765957         -0.4549
H933       H    0.4583110113    0.7334507666   -0.0076015237          0.5237
H934       H    0.5381096298    0.7525469969    0.0027258494          -0.469
H935       H    0.5196156325    0.7160784650   -0.0288712078         -0.4481
H936       H    0.5142392240    0.7442731453    0.0343889754          0.5015
H937       H    0.4744076346    0.7758180807    0.0179328542          0.5071
C938       C    0.5143586790    0.6513871343    0.0015681785          0.5264
N939       N    0.5000000000    0.6177261535    0.0000000000          0.5245
N940       N    0.4785538284    0.6310701962   -0.0003656555          0.5209
N941       N    0.4802163795    0.6620447718   -0.0014105690          0.5223
H942       H    0.5287999185    0.6518934390    0.0223342660          0.5128
H943       H    0.5310287347    0.6531072926   -0.0173335667         -0.4556
H944       H    0.4722766437    0.6797042998   -0.0110538684         -0.4715
C869       C    0.5000000000    1.1177261535    0.0000000000          0.5272
C870       C    0.4809270054    1.1347706502   -0.0173567316          0.5254
C871       C    0.4805654828    1.1658085988   -0.0185177644          0.5245
C872       C    0.5002135242    1.1838272743   -0.0019098083          0.5252
C873       C    0.5198897185    1.1666721844    0.0159737639           0.527
C874       C    0.5195153522    1.1347868596    0.0170727904         -0.4718
C875       C    0.4969864944    1.2215380769   -0.0062409523          0.5236
C876       C    0.4564806842    1.1789142007   -0.0405622690          0.5223
H877       H    0.4642358704    1.1231917007   -0.0318573099          0.5245
C878       C    0.5390266498    1.1198598035    0.0357346970         -0.4694
C879       C    0.5408773532    1.1806149047    0.0337347327         -0.4722
C880       C    0.5600856416    1.1652756936    0.0520385586         -0.4699
C881       C    0.5589290600    1.1348455104    0.0531055725         -0.4684
H882       H    0.5429914136    1.2051670128    0.0337852322          0.5265
F883       F    0.5804897955    1.1804050034    0.0694522897         -0.4691
H884       H    0.5743139276    1.1220082263    0.0680683333         -0.4663
H885       H    0.5392431773    1.0949872771    0.0376088641         -0.4681
H886       H    0.4448555746    1.1610391694   -0.0538702118          0.5197
H887       H    0.4667135475    1.1944406077   -0.0573680593          0.5063
H888       H    0.4382690182    1.1908114455   -0.0281009291         -0.4609
C889       C    0.5164985660    1.2512146341    0.0052346144           0.521
C890       C    0.4941681447    1.2811157919    0.0087781944          -0.466
N891       N    0.4662673622    1.2664820546   -0.0045286817         -0.4605
N892       N    0.4666333875    1.2334244093    0.0030963441         -0.4555
C893       C    0.4974439163    1.3163440211   -0.0063150234          0.5224
H894       H    0.4494411753    1.2239503268   -0.0096055145         -0.4549
H895       H    0.4680906984    1.2665492334   -0.0278846089          0.5237
H896       H    0.5258654255    1.2474530031    0.0281203467          -0.469
H897       H    0.4896260714    1.2839215350    0.0333271854         -0.4481
H898       H    0.5357741687    1.2557268547   -0.0102745310          0.5015
H899       H    0.4980935138    1.2241819193   -0.0311916934          0.5071
C900       C    0.5101688036    1.3486128657    0.0102579862          0.5264
N901       N    0.5000000000    1.3822738465    0.0000000000          0.5245
N902       N    0.4863583636    1.3689298038   -0.0165522729          0.5209
N903       N    0.4865761477    1.3379552282   -0.0146007375          0.5223
H904       H    0.5354099123    1.3481065610    0.0086251294          0.5128
H905       H    0.5057608654    1.3468927074    0.0350720307         -0.4556
H906       H    0.4740865592    1.3202957002   -0.0148076358         -0.4715
C831       C    0.5000000000    1.0000000000   -0.1177261535          0.5272
C832       C    0.4975330680    1.0256700117   -0.1347706502          0.5254
C833       C    0.4968201824    1.0266551462   -0.1658085988          0.5245
C834       C    0.4983430771    1.0009734303   -0.1838272743          0.5252
C835       C    0.5008703502    0.9745048136   -0.1666721844           0.527
C836       C    0.5019745459    0.9741459808   -0.1347868596         -0.4718
C837       C    0.4968092662    1.0061522288   -0.2215380769          0.5236
C838       C    0.4936033797    1.0591465278   -0.1789142007          0.5223
H839       H    0.4959255154    1.0477216904   -0.1231917007          0.5245
C840       C    0.5052237551    0.9473429934   -0.1198598035         -0.4694
C841       C    0.5025136399    0.9470597336   -0.1806149047         -0.4722
C842       C    0.5056577387    0.9207138984   -0.1652756936         -0.4699
C843       C    0.5072050166    0.9210004831   -0.1348455104         -0.4684
H844       H    0.5012873034    0.9453369740   -0.2051670128          0.5265
F845       F    0.5073726602    0.8939440167   -0.1804050034         -0.4691
H846       H    0.5099653171    0.8997176472   -0.1220082263         -0.4663
H847       H    0.5065944528    0.9460466236   -0.0949872771         -0.4681
H848       H    0.4899150287    1.0764277485   -0.1610391694          0.5197
H849       H    0.4740171660    1.0610243761   -0.1944406077          0.5063
H850       H    0.5144924390    1.0662596826   -0.1908114455         -0.4609
C851       C    0.4943046857    0.9836547479   -0.2512146341           0.521
C852       C    0.5105222573    0.9994089553   -0.2811157919          -0.466
N853       N    0.5165873051    1.0297197093   -0.2664820546         -0.4605
N854       N    0.5224725133    1.0248576813   -0.2334244093         -0.4555
C855       C    0.4964758739    1.0058304047   -0.3163440211          0.5224
H856       H    0.5226052517    1.0462327077   -0.2239503268         -0.4549
H857       H    0.4967961766    1.0422550643   -0.2665492334          0.5237
H858       H    0.5070141037    0.9624423578   -0.2474530031          -0.469
H859       H    0.5328976373    0.9883353037   -0.2839215350         -0.4481
H860       H    0.4703380565    0.9775160893   -0.2557268547          0.5015
H861       H    0.4761705668    1.0202166896   -0.2241819193          0.5071
C862       C    0.5021192132    0.9857122506   -0.3486128657          0.5264
N863       N    0.5000000000    1.0000000000   -0.3822738465          0.5245
N864       N    0.4949225874    1.0208396704   -0.3689298038          0.5209
N865       N    0.4963544726    1.0194959349   -0.3379552282          0.5223
H866       H    0.4856872385    0.9664828462   -0.3481065610          0.5128
H867       H    0.5246264178    0.9743723888   -0.3468927074         -0.4556
H868       H    0.5036727168    1.0296189744   -0.3202957002         -0.4715
C793       C    0.5000000000    1.0000000000    0.1177261535          0.5272
C794       C    0.4742902710    1.0020112400    0.1347706502          0.5254
C795       C    0.4732926471    1.0027065403    0.1658085988          0.5245
C796       C    0.4989973343    1.0016393968    0.1838272743          0.5252
C797       C    0.5255066130    0.9995819898    0.1666721844           0.527
C798       C    0.5258849743    0.9984843323    0.1347868596         -0.4718
C799       C    0.4937921455    1.0030811110    0.2215380769          0.5236
C800       C    0.4407493209    1.0053465438    0.1789142007          0.5223
H801       H    0.4522135484    1.0032274135    0.1231917007          0.5245
C802       C    0.5527413759    0.9957110336    0.1198598035         -0.4694
C803       C    0.5529765224    0.9984257465    0.1806149047         -0.4722
C804       C    0.5793739793    0.9957494333    0.1652756936         -0.4699
C805       C    0.5791148835    0.9941973156    0.1348455104         -0.4684
H806       H    0.5546772596    0.9996824464    0.2051670128          0.5265
F807       F    0.6061700671    0.9945095936    0.1804050034         -0.4691
H808       H    0.6004433303    0.9918149388    0.1220082263         -0.4663
H809       H    0.5540618535    0.9943635450    0.0949872771         -0.4681
H810       H    0.4234053992    1.0087278009    0.1610391694          0.5197
H811       H    0.4385243712    1.0248963693    0.1944406077          0.5063
H812       H    0.4340077902    0.9843346059    0.1908114455         -0.4609
C813       C    0.5162416641    1.0059843308    0.2512146341           0.521
C814       C    0.5007775829    0.9894898812    0.2811157919          -0.466
N815       N    0.4705791717    0.9828881717    0.2664820546         -0.4605
N816       N    0.4755448196    0.9770901260    0.2334244093         -0.4555
C817       C    0.4941080057    1.0034201590    0.3163440211          0.5224
H818       H    0.4541755101    0.9765782839    0.2239503268         -0.4549
H819       H    0.4576947573    1.0024538497    0.2665492334          0.5237
H820       H    0.5376761418    0.9936531522    0.2474530031          -0.469
H821       H    0.5122463603    0.9673144323    0.2839215350         -0.4481
H822       H    0.5219542657    1.0300560701    0.2557268547          0.5015
H823       H    0.4793638327    1.0234671052    0.2241819193          0.5071
C824       C    0.5143230899    0.9981345392    0.3486128657          0.5264
N825       N    0.5000000000    1.0000000000    0.3822738465          0.5245
N826       N    0.4790735508    1.0047069848    0.3689298038          0.5209
N827       N    0.4804424720    1.0032991584    0.3379552282          0.5223
H828       H    0.5332580187    1.0149049971    0.3481065610          0.5128
H829       H    0.5260603736    0.9758320080    0.3468927074         -0.4556
H830       H    0.4704508272    0.9958025151    0.3202957002         -0.4715
C755       C    0.8822738465    0.5000000000    0.5000000000          0.5272
C756       C    0.8652293498    0.4803322760    0.5166798047          0.5254
C757       C    0.8341914012    0.4791343627    0.5168888496          0.5245
C758       C    0.8161727257    0.4981335727    0.4995423872          0.5252
C759       C    0.8333278156    0.5184014083    0.4823322268           0.527
C760       C    0.8652131404    0.5194430940    0.4828449647         -0.4718
C761       C    0.7784619231    0.4934230275    0.5021849794          0.5236
C762       C    0.8210857993    0.4541726634    0.5379352571          0.5223
H763       H    0.8768082993    0.4638035745    0.5313652665          0.5245
C764       C    0.8801401965    0.5404615585    0.4658985302         -0.4694
C765       C    0.8193850953    0.5387164932    0.4638057553         -0.4722
C766       C    0.8347243064    0.5593408479    0.4471137099         -0.4699
C767       C    0.8651544896    0.5602500864    0.4483980327         -0.4684
H768       H    0.7948329872    0.5390387330    0.4617157880          0.5265
F769       F    0.8195949966    0.5792364683    0.4291211611         -0.4691
H770       H    0.8779917737    0.5770689577    0.4350674689         -0.4663
H771       H    0.9050127229    0.5423480054    0.4659250816         -0.4681
H772       H    0.8389608306    0.4394788645    0.5477503878          0.5197
H773       H    0.8055593923    0.4388240821    0.5256239968          0.5063
H774       H    0.8091885545    0.4641857688    0.5575996283         -0.4609
C775       C    0.7487853659    0.5073150523    0.4843126204           0.521
C776       C    0.7188842081    0.5079543644    0.5069134159          -0.466
N777       N    0.7335179454    0.4911663212    0.5328689204         -0.4605
N778       N    0.7665755907    0.4987750175    0.5334875737         -0.4555
C779       C    0.6836559789    0.4934084606    0.5017218282          0.5224
H780       H    0.7760496732    0.4839655601    0.5489015071         -0.4549
H781       H    0.7334507666    0.4682394811    0.5280539547          0.5237
H782       H    0.7525469969    0.5312162168    0.4779699763          -0.469
H783       H    0.7160784650    0.5317143348    0.5145780879         -0.4481
H784       H    0.7442731453    0.4944164728    0.4632007968          0.5015
H785       H    0.7758180807    0.4688224273    0.4978750563          0.5071
C786       C    0.6513871343    0.5114817398    0.4912364107          0.5264
N787       N    0.6177261535    0.5000000000    0.5000000000          0.5245
N788       N    0.6310701962    0.4818292642    0.5113972076          0.5209
N789       N    0.6620447718    0.4837925973    0.5114324731          0.5223
H790       H    0.6518934390    0.5131119679    0.4659951321          0.5128
H791       H    0.6531072926    0.5355218264    0.4988021863         -0.4556
H792       H    0.6797042998    0.4819795324    0.5237914950         -0.4715
C717       C    1.1177261535    0.5000000000    0.5000000000          0.5272
C718       C    1.1347706502    0.5169998940    0.4806082786          0.5254
C719       C    1.1658085988    0.5172285431    0.4794139522          0.5245
C720       C    1.1838272743    0.4995730371    0.4981263237          0.5252
C721       C    1.1666721844    0.4820330235    0.5181093841           0.527
C722       C    1.1347868596    0.4825286206    0.5191593331         -0.4718
C723       C    1.2215380769    0.5022924744    0.4934597199          0.5236
C724       C    1.1789142007    0.5386812151    0.4548005298          0.5223
H725       H    1.1231917007    0.5319542682    0.4643224734          0.5245
C726       C    1.1198598035    0.4652399958    0.5398972439         -0.4694
C727       C    1.1806149047    0.4631761013    0.5381181149         -0.4722
C728       C    1.1652756936    0.4461482904    0.5584661379         -0.4699
C729       C    1.1348455104    0.4474175394    0.5593963028         -0.4684
H730       H    1.2051670128    0.4610811337    0.5384060595          0.5265
F731       F    1.1804050034    0.4278320937    0.5780642108         -0.4691
H732       H    1.1220082263    0.4338131257    0.5759944439         -0.4663
H733       H    1.0949872771    0.4652356271    0.5417838725         -0.4681
H734       H    1.1610391694    0.5487358405    0.4402695620          0.5197
H735       H    1.1944406077    0.5266231523    0.4392522436          0.5063
H736       H    1.1908114455    0.5581788429    0.4651345648         -0.4609
C737       C    1.2512146341    0.4841948427    0.5070569733           0.521
C738       C    1.2811157919    0.5067821253    0.5080665984          -0.466
N739       N    1.2664820546    0.5330092789    0.4917061881         -0.4605
N740       N    1.2334244093    0.5335031521    0.4993240015         -0.4555
C741       C    1.3163440211    0.5018296241    0.4934375645          0.5224
H742       H    1.2239503268    0.5491577239    0.4847691483         -0.4549
H743       H    1.2665492334    0.5285707022    0.4687035159          0.5237
H744       H    1.2474530031    0.4774613402    0.5308509798          -0.469
H745       H    1.2839215350    0.5140563716    0.5319489921         -0.4481
H746       H    1.2557268547    0.4632972461    0.4938141297          0.5015
H747       H    1.2241819193    0.4983863032    0.4687917894          0.5071
C748       C    1.3486128657    0.4910494163    0.5113365735          0.5264
N749       N    1.3822738465    0.5000000000    0.5000000000          0.5245
N750       N    1.3689298038    0.5116934726    0.4820184906          0.5209
N751       N    1.3379552282    0.5116965568    0.4839821379          0.5223
H752       H    1.3481065610    0.4657848103    0.5125529095          0.5128
H753       H    1.3468927074    0.4982201888    0.5354974250         -0.4556
H754       H    1.3202957002    0.5240836327    0.4823718655         -0.4715
C679       C    0.6177261535    0.5000000000    0.0000000000          0.5272
C680       C    0.6347706502    0.4813990138    0.0178616508          0.5254
C681       C    0.6658085988    0.4810687366    0.0190319553          0.5245
C682       C    0.6838272743    0.5002646300    0.0019033999          0.5252
C683       C    0.6666721844    0.5194544801   -0.0165010679           0.527
C684       C    0.6347868596    0.5190507944   -0.0175896667         -0.4718
C685       C    0.7215380769    0.4971548334    0.0063194722          0.5236
C686       C    0.6789142007    0.4575833783    0.0417140109          0.5223
H687       H    0.6231917007    0.4651024873    0.0328043407          0.5245
C688       C    0.6198598035    0.5380549476   -0.0367677701         -0.4694
C689       C    0.6806149047    0.5399585851   -0.0348181228         -0.4722
C690       C    0.6652756936    0.5586694344   -0.0536301536         -0.4699
C691       C    0.6348455104    0.5574846724   -0.0546657880         -0.4684
H692       H    0.7051670128    0.5420705328   -0.0349252606          0.5265
F693       F    0.6804050034    0.5785995741   -0.0715844583         -0.4691
H694       H    0.6220082263    0.5724630143   -0.0700354866         -0.4663
H695       H    0.5949872771    0.5382211700   -0.0386470670         -0.4681
H696       H    0.6610391694    0.4463190950    0.0553287251          0.5197
H697       H    0.6944406077    0.4682629588    0.0582395257          0.5063
H698       H    0.6908114455    0.4390442915    0.0297452168         -0.4609
C699       C    0.7512146341    0.5163523532   -0.0056748934           0.521
C700       C    0.7811157919    0.4939349851   -0.0086187485          -0.466
N701       N    0.7664820546    0.4664008463    0.0054310847         -0.4605
N702       N    0.7334244093    0.4665623906   -0.0022010117         -0.4555
C703       C    0.8163440211    0.4976140760    0.0063812578          0.5224
H704       H    0.7239503268    0.4497167614    0.0109570333         -0.4549
H705       H    0.7665492334    0.4688494630    0.0287297578          0.5237
H706       H    0.7474530031    0.5251025141   -0.0288034360          -0.469
H707       H    0.7839215350    0.4887366339   -0.0330371952         -0.4481
H708       H    0.7557268547    0.5360366752    0.0093120982          0.5015
H709       H    0.7241819193    0.4989301313    0.0312315835          0.5071
C710       C    0.8486128657    0.5098902387   -0.0105268242          0.5264
N711       N    0.8822738465    0.5000000000    0.0000000000          0.5245
N712       N    0.8689298038    0.4868068619    0.0169119215          0.5209
N713       N    0.8379552282    0.4869722668    0.0149552504          0.5223
H714       H    0.8481065610    0.5351660415   -0.0095710118          0.5128
H715       H    0.8468927074    0.5048188710   -0.0352138239         -0.4556
H716       H    0.8202957002    0.4744927092    0.0154967935         -0.4715
C641       C    1.1177261535    0.5000000000    0.0000000000          0.5272
C642       C    1.1347706502    0.5189148644   -0.0175289235          0.5254
C643       C    1.1658085988    0.5192658469   -0.0186931860          0.5245
C644       C    1.1838272743    0.4997691714   -0.0019077941          0.5252
C645       C    1.1666721844    0.4802559080    0.0161534166           0.527
C646       C    1.1347868596    0.4806402222    0.0172490041         -0.4718
C647       C    1.2215380769    0.5029568047   -0.0062680147          0.5236
C648       C    1.1789142007    0.5431498125   -0.0409551241          0.5223
H649       H    1.1231917007    0.5354738594   -0.0321802185          0.5245
C650       C    1.1198598035    0.4612989048    0.0360870224         -0.4694
C651       C    1.1806149047    0.4594301468    0.0341039178         -0.4722
C652       C    1.1652756936    0.4403885800    0.0525811232         -0.4699
C653       C    1.1348455104    0.4415547871    0.0536376083         -0.4684
H654       H    1.2051670128    0.4573166311    0.0341735801          0.5265
F655       F    1.1804050034    0.4201431278    0.0701791114         -0.4691
H656       H    1.1220082263    0.4263061957    0.0687392249         -0.4663
H657       H    1.0949872771    0.4610993763    0.0379630755         -0.4681
H658       H    1.1610391694    0.5546538021   -0.0543679069          0.5197
H659       H    1.1944406077    0.5327650178   -0.0576674584          0.5063
H660       H    1.1908114455    0.5614736978   -0.0286593930         -0.4609
C661       C    1.2512146341    0.4835495660    0.0053839661           0.521
C662       C    1.2811157919    0.5059111939    0.0087249653          -0.466
N663       N    1.2664820546    0.5336901971   -0.0048342969         -0.4605
N664       N    1.2334244093    0.5333933111    0.0027937337         -0.4555
C665       C    1.3163440211    0.5024987302   -0.0063379359          0.5224
H666       H    1.2239503268    0.5504696689   -0.0100634579         -0.4549
H667       H    1.2665492334    0.5316552040   -0.0281727350          0.5237
H668       H    1.2474530031    0.4743905607    0.0283536727          -0.469
H669       H    1.2839215350    0.5106756280    0.0332317716         -0.4481
H670       H    1.2557268547    0.4641341581   -0.0099498001          0.5015
H671       H    1.2241819193    0.5016236414   -0.0312076948          0.5071
C672       C    1.3486128657    0.4899246074    0.0103497494          0.5264
N673       N    1.3822738465    0.5000000000    0.0000000000          0.5245
N674       N    1.3689298038    0.5134910221   -0.0166752602          0.5209
N675       N    1.3379552282    0.5132909386   -0.0147218307          0.5223
H676       H    1.3481065610    0.4646697334    0.0089457815          0.5128
H677       H    1.3468927074    0.4945573148    0.0351228143         -0.4556
H678       H    1.3202957002    0.5257781382   -0.0150419441         -0.4715
C603       C    1.0000000000    0.5000000000   -0.1177261535          0.5272
C604       C    1.0257097290    0.5020112400   -0.1347706502          0.5254
C605       C    1.0267073529    0.5027065403   -0.1658085988          0.5245
C606       C    1.0010026657    0.5016393968   -0.1838272743          0.5252
C607       C    0.9744933870    0.4995819898   -0.1666721844           0.527
C608       C    0.9741150257    0.4984843323   -0.1347868596         -0.4718
C609       C    1.0062078545    0.5030811110   -0.2215380769          0.5236
C610       C    1.0592506791    0.5053465438   -0.1789142007          0.5223
H611       H    1.0477864516    0.5032274135   -0.1231917007          0.5245
C612       C    0.9472586241    0.4957110336   -0.1198598035         -0.4694
C613       C    0.9470234776    0.4984257465   -0.1806149047         -0.4722
C614       C    0.9206260207    0.4957494333   -0.1652756936         -0.4699
C615       C    0.9208851165    0.4941973156   -0.1348455104         -0.4684
H616       H    0.9453227404    0.4996824464   -0.2051670128          0.5265
F617       F    0.8938299329    0.4945095936   -0.1804050034         -0.4691
H618       H    0.8995566697    0.4918149388   -0.1220082263         -0.4663
H619       H    0.9459381465    0.4943635450   -0.0949872771         -0.4681
H620       H    1.0765946008    0.5087278009   -0.1610391694          0.5197
H621       H    1.0614756288    0.5248963693   -0.1944406077          0.5063
H622       H    1.0659922098    0.4843346059   -0.1908114455         -0.4609
C623       C    0.9837583359    0.5059843308   -0.2512146341           0.521
C624       C    0.9992224171    0.4894898812   -0.2811157919          -0.466
N625       N    1.0294208283    0.4828881717   -0.2664820546         -0.4605
N626       N    1.0244551804    0.4770901260   -0.2334244093         -0.4555
C627       C    1.0058919943    0.5034201590   -0.3163440211          0.5224
H628       H    1.0458244899    0.4765782839   -0.2239503268         -0.4549
H629       H    1.0423052427    0.5024538497   -0.2665492334          0.5237
H630       H    0.9623238582    0.4936531522   -0.2474530031          -0.469
H631       H    0.9877536397    0.4673144323   -0.2839215350         -0.4481
H632       H    0.9780457343    0.5300560701   -0.2557268547          0.5015
H633       H    1.0206361673    0.5234671052   -0.2241819193          0.5071
C634       C    0.9856769101    0.4981345392   -0.3486128657          0.5264
N635       N    1.0000000000    0.5000000000   -0.3822738465          0.5245
N636       N    1.0209264492    0.5047069848   -0.3689298038          0.5209
N637       N    1.0195575280    0.5032991584   -0.3379552282          0.5223
H638       H    0.9667419813    0.5149049971   -0.3481065610          0.5128
H639       H    0.9739396264    0.4758320080   -0.3468927074         -0.4556
H640       H    1.0295491728    0.4958025151   -0.3202957002         -0.4715
C565       C    1.0000000000    0.5000000000    0.3822738465          0.5272
C566       C    1.0257097290    0.5020112400    0.3652293498          0.5254
C567       C    1.0267073529    0.5027065403    0.3341914012          0.5245
C568       C    1.0010026657    0.5016393968    0.3161727257          0.5252
C569       C    0.9744933870    0.4995819898    0.3333278156           0.527
C570       C    0.9741150257    0.4984843323    0.3652131404         -0.4718
C571       C    1.0062078545    0.5030811110    0.2784619231          0.5236
C572       C    1.0592506791    0.5053465438    0.3210857993          0.5223
H573       H    1.0477864516    0.5032274135    0.3768082993          0.5245
C574       C    0.9472586241    0.4957110336    0.3801401965         -0.4694
C575       C    0.9470234776    0.4984257465    0.3193850953         -0.4722
C576       C    0.9206260207    0.4957494333    0.3347243064         -0.4699
C577       C    0.9208851165    0.4941973156    0.3651544896         -0.4684
H578       H    0.9453227404    0.4996824464    0.2948329872          0.5265
F579       F    0.8938299329    0.4945095936    0.3195949966         -0.4691
H580       H    0.8995566697    0.4918149388    0.3779917737         -0.4663
H581       H    0.9459381465    0.4943635450    0.4050127229         -0.4681
H582       H    1.0765946008    0.5087278009    0.3389608306          0.5197
H583       H    1.0614756288    0.5248963693    0.3055593923          0.5063
H584       H    1.0659922098    0.4843346059    0.3091885545         -0.4609
C585       C    0.9837583359    0.5059843308    0.2487853659           0.521
C586       C    0.9992224171    0.4894898812    0.2188842081          -0.466
N587       N    1.0294208283    0.4828881717    0.2335179454         -0.4605
N588       N    1.0244551804    0.4770901260    0.2665755907         -0.4555
C589       C    1.0058919943    0.5034201590    0.1836559789          0.5224
H590       H    1.0458244899    0.4765782839    0.2760496732         -0.4549
H591       H    1.0423052427    0.5024538497    0.2334507666          0.5237
H592       H    0.9623238582    0.4936531522    0.2525469969          -0.469
H593       H    0.9877536397    0.4673144323    0.2160784650         -0.4481
H594       H    0.9780457343    0.5300560701    0.2442731453          0.5015
H595       H    1.0206361673    0.5234671052    0.2758180807          0.5071
C596       C    0.9856769101    0.4981345392    0.1513871343          0.5264
N597       N    1.0000000000    0.5000000000    0.1177261535          0.5245
N598       N    1.0209264492    0.5047069848    0.1310701962          0.5209
N599       N    1.0195575280    0.5032991584    0.1620447718          0.5223
H600       H    0.9667419813    0.5149049971    0.1518934390          0.5128
H601       H    0.9739396264    0.4758320080    0.1531072926         -0.4556
H602       H    1.0295491728    0.4958025151    0.1797042998         -0.4715
C527       C    1.0000000000   -0.3822738465    0.5000000000          0.5272
C528       C    0.9742902710   -0.3652293498    0.4979887600          0.5254
C529       C    0.9732926471   -0.3341914012    0.4972934597          0.5245
C530       C    0.9989973343   -0.3161727257    0.4983606032          0.5252
C531       C    1.0255066130   -0.3333278156    0.5004180102           0.527
C532       C    1.0258849743   -0.3652131404    0.5015156677         -0.4718
C533       C    0.9937921455   -0.2784619231    0.4969188890          0.5236
C534       C    0.9407493209   -0.3210857993    0.4946534562          0.5223
H535       H    0.9522135484   -0.3768082993    0.4967725865          0.5245
C536       C    1.0527413759   -0.3801401965    0.5042889664         -0.4694
C537       C    1.0529765224   -0.3193850953    0.5015742535         -0.4722
C538       C    1.0793739793   -0.3347243064    0.5042505667         -0.4699
C539       C    1.0791148835   -0.3651544896    0.5058026844         -0.4684
H540       H    1.0546772596   -0.2948329872    0.5003175536          0.5265
F541       F    1.1061700671   -0.3195949966    0.5054904064         -0.4691
H542       H    1.1004433303   -0.3779917737    0.5081850612         -0.4663
H543       H    1.0540618535   -0.4050127229    0.5056364550         -0.4681
H544       H    0.9234053992   -0.3389608306    0.4912721991          0.5197
H545       H    0.9385243712   -0.3055593923    0.4751036307          0.5063
H546       H    0.9340077902   -0.3091885545    0.5156653941         -0.4609
C547       C    1.0162416641   -0.2487853659    0.4940156692           0.521
C548       C    1.0007775829   -0.2188842081    0.5105101188          -0.466
N549       N    0.9705791717   -0.2335179454    0.5171118283         -0.4605
N550       N    0.9755448196   -0.2665755907    0.5229098740         -0.4555
C551       C    0.9941080057   -0.1836559789    0.4965798410          0.5224
H552       H    0.9541755101   -0.2760496732    0.5234217161         -0.4549
H553       H    0.9576947573   -0.2334507666    0.4975461503          0.5237
H554       H    1.0376761418   -0.2525469969    0.5063468478          -0.469
H555       H    1.0122463603   -0.2160784650    0.5326855677         -0.4481
H556       H    1.0219542657   -0.2442731453    0.4699439299          0.5015
H557       H    0.9793638327   -0.2758180807    0.4765328948          0.5071
C558       C    1.0143230899   -0.1513871343    0.5018654608          0.5264
N559       N    1.0000000000   -0.1177261535    0.5000000000          0.5245
N560       N    0.9790735508   -0.1310701962    0.4952930152          0.5209
N561       N    0.9804424720   -0.1620447718    0.4967008416          0.5223
H562       H    1.0332580187   -0.1518934390    0.4850950029          0.5128
H563       H    1.0260603736   -0.1531072926    0.5241679920         -0.4556
H564       H    0.9704508272   -0.1797042998    0.5041974849         -0.4715
C489       C    1.0000000000    0.3822738465    0.5000000000          0.5272
C490       C    0.9968019204    0.3652293498    0.5255892075          0.5254
C491       C    0.9972824811    0.3341914012    0.5267062380          0.5245
C492       C    1.0014043713    0.3161727257    0.5013117552          0.5252
C493       C    1.0047179548    0.3333278156    0.4749300391           0.527
C494       C    1.0037187640    0.3652131404    0.4743387464         -0.4718
C495       C    1.0017702890    0.2784619231    0.5067005059          0.5236
C496       C    0.9933266151    0.3210857993    0.5591159407          0.5223
H497       H    0.9935553245    0.3768082993    0.5474597442          0.5245
C498       C    1.0064008496    0.3801401965    0.4474730823         -0.4694
C499       C    1.0091074155    0.3193850953    0.4477884574         -0.4722
C500       C    1.0117922479    0.3347243064    0.4213918655         -0.4699
C501       C    1.0102197303    0.3651544896    0.4213336600         -0.4684
H502       H    1.0106803499    0.2948329872    0.4463750647          0.5265
F503       F    1.0159643646    0.3195949966    0.3948935455         -0.4691
H504       H    1.0121735080    0.3779917737    0.3999616897         -0.4663
H505       H    1.0053463153    0.4050127229    0.4459086833         -0.4681
H506       H    0.9931523105    0.3389608306    0.5767855229          0.5197
H507       H    1.0120300907    0.3055593923    0.5652254480          0.5063
H508       H    0.9713883996    0.3091885545    0.5614959564         -0.4609
C509       C    1.0091271273    0.2487853659    0.4852928787           0.521
C510       C    0.9898607432    0.2188842081    0.4971255081          -0.466
N511       N    0.9773232042    0.2335179454    0.5253803613         -0.4605
N512       N    0.9726417301    0.2665755907    0.5193505360         -0.4555
C513       C    1.0021659112    0.1836559789    0.5064592502          0.5224
H514       H    0.9678446004    0.2760496732    0.5401807285         -0.4549
H515       H    0.9938994044    0.2334507666    0.5419349219          0.5237
H516       H    1.0013565090    0.2525469969    0.4618170978          -0.469
H517       H    0.9704434704    0.2160784650    0.4814330607         -0.4481
H518       H    1.0338558434    0.2442731453    0.4845358803          0.5015
H519       H    1.0188396997    0.2758180807    0.5249323513          0.5071
C520       C    1.0010518994    0.1513871343    0.4855942944          0.5264
N521       N    1.0000000000    0.1177261535    0.5000000000          0.5245
N522       N    1.0004041875    0.1310701962    0.5214454800          0.5209
N523       N    0.9993002855    0.1620447718    0.5198214971          0.5223
H524       H    1.0212863799    0.1518934390    0.4704171541          0.5128
H525       H    0.9815641148    0.1531072926    0.4696132752         -0.4556
H526       H    0.9899481190    0.1797042998    0.5281021739         -0.4715
C451       C    0.6177261535   -0.0000000000    0.5000000000          0.5272
C452       C    0.6347706502    0.0216895757    0.5139498230          0.5254
C453       C    0.6658085988    0.0229045732    0.5139995924          0.5245
C454       C    0.6838272743    0.0017900811    0.4993010223          0.5252
C455       C    0.6666721844   -0.0205641125    0.4849043280           0.527
C456       C    0.6347868596   -0.0215293621    0.4855495430         -0.4718
C457       C    0.7215380769    0.0068071138    0.5013015003          0.5236
C458       C    0.6789142007    0.0504161647    0.5315822553          0.5223
H459       H    0.6231917007    0.0400052157    0.5263352212          0.5245
C460       C    0.6198598035   -0.0445930059    0.4715129541         -0.4694
C461       C    0.6806149047   -0.0431381702    0.4692089547         -0.4722
C462       C    0.6652756936   -0.0657776851    0.4553727431         -0.4699
C463       C    0.6348455104   -0.0665102145    0.4567654385         -0.4684
H464       H    0.7051670128   -0.0437323330    0.4671794789          0.5265
F465       F    0.6804050034   -0.0878657355    0.4401515226         -0.4691
H466       H    0.6220082263   -0.0849354099    0.4457613240         -0.4663
H467       H    0.5949872771   -0.0464595944    0.4717872420         -0.4681
H468       H    0.6610391694    0.0662726348    0.5393807727          0.5197
H469       H    0.6944406077    0.0640132971    0.5173602979          0.5063
H470       H    0.6908114455    0.0430747550    0.5523921922         -0.4609
C471       C    0.7512146341   -0.0093136341    0.4854102745           0.521
C472       C    0.7811157919   -0.0069766015    0.5078990040          -0.466
N473       N    0.7664820546    0.0130775388    0.5314225681         -0.4605
N474       N    0.7334244093    0.0056161811    0.5330359908         -0.4555
C475       C    0.8163440211    0.0067606747    0.5008404530          0.5224
H476       H    0.7239503268    0.0223232496    0.5463695287         -0.4549
H477       H    0.7665492334    0.0351725377    0.5236357257          0.5237
H478       H    0.7474530031   -0.0338411332    0.4822643906          -0.469
H479       H    0.7839215350   -0.0295229176    0.5186203388         -0.4481
H480       H    0.7557268547    0.0006979504    0.4627861585          0.5015
H481       H    0.7241819193    0.0306277362    0.4937953082          0.5071
C482       C    0.8486128657   -0.0125340596    0.4928216857          0.5264
N483       N    0.8822738465   -0.0000000000    0.5000000000          0.5245
N484       N    0.8689298038    0.0195111971    0.5089098356          0.5209
N485       N    0.8379552282    0.0175695349    0.5092028686          0.5223
H486       H    0.8481065610   -0.0174680227    0.4680137072          0.5128
H487       H    0.8468927074   -0.0353710611    0.5034818025         -0.4556
H488       H    0.8202957002    0.0209914196    0.5212163332         -0.4715
C413       C    1.1177261535   -0.0000000000    0.5000000000          0.5272
C414       C    1.1347706502    0.0167070119    0.4803553822          0.5254
C415       C    1.1658085988    0.0169177147    0.4791577595          0.5245
C416       C    1.1838272743   -0.0004550289    0.4981329411          0.5252
C417       C    1.1666721844   -0.0176932267    0.5183769357           0.527
C418       C    1.1347868596   -0.0171819311    0.5194193301         -0.4718
C419       C    1.2215380769    0.0021940809    0.4934260582          0.5236
C420       C    1.1789142007    0.0379986529    0.4542252156          0.5223
H421       H    1.1231917007    0.0314153379    0.4638470236          0.5245
C422       C    1.1198598035   -0.0341574421    0.5404143181         -0.4694
C423       C    1.1806149047   -0.0362477997    0.5386663577         -0.4722
C424       C    1.1652756936   -0.0529683763    0.5592675883         -0.4699
C425       C    1.1348455104   -0.0516853133    0.5601786036         -0.4684
H426       H    1.2051670128   -0.0383382110    0.5389857043          0.5265
F427       F    1.1804050034   -0.0709884465    0.5791382851         -0.4691
H428       H    1.1220082263   -0.0650391442    0.5769790072         -0.4663
H429       H    1.0949872771   -0.0341335020    0.5423007999         -0.4681
H430       H    1.1610391694    0.0478341127    0.4395450164          0.5197
H431       H    1.1944406077    0.0257086492    0.4388596083          0.5063
H432       H    1.1908114455    0.0576491455    0.4642655299         -0.4609
C433       C    1.2512146341   -0.0156974898    0.5072933315           0.521
C434       C    1.2811157919    0.0069023992    0.5079639260          -0.466
N435       N    1.2664820546    0.0328811161    0.4912118253         -0.4605
N436       N    1.2334244093    0.0334892372    0.4988213706         -0.4555
C437       C    1.3163440211    0.0017309503    0.4934108502          0.5224
H438       H    1.2239503268    0.0489236544    0.4840332627         -0.4549
H439       H    1.2665492334    0.0280978893    0.4682783425          0.5237
H440       H    1.2474530031   -0.0220732107    0.5311856940          -0.469
H441       H    1.2839215350    0.0145341764    0.5317344828         -0.4481
H442       H    1.2557268547   -0.0367914395    0.4943655424          0.5015
H443       H    1.2241819193   -0.0020817871    0.4688195159          0.5071
C444       C    1.3486128657   -0.0087794735    0.5114695987          0.5264
N445       N    1.3822738465   -0.0000000000    0.5000000000          0.5245
N446       N    1.3689298038    0.0114223478    0.4818450571          0.5209
N447       N    1.3379552282    0.0114548957    0.4838084371          0.5223
H448       H    1.3481065610   -0.0340229843    0.5130648873          0.5128
H449       H    1.3468927074   -0.0012469802    0.5355201344         -0.4556
H450       H    1.3202957002    0.0238164154    0.4820124807         -0.4715
C375       C    0.0000000000   -0.3822738465    0.0000000000          0.5272
C376       C   -0.0042340134   -0.3652293498    0.0254383251          0.5254
C377       C   -0.0050132377   -0.3341914012    0.0263718696          0.5245
C378       C   -0.0017201989   -0.3161727257    0.0008566657          0.5252
C379       C    0.0026291695   -0.3333278156   -0.0253741897           0.527
C380       C    0.0037555122   -0.3652131404   -0.0256559012         -0.4718
C381       C   -0.0036080354   -0.2784619231    0.0059171600          0.5236
C382       C   -0.0104664685   -0.3210857993    0.0585634830          0.5223
H383       H   -0.0073607892   -0.3768082993    0.0473263134          0.5245
C384       C    0.0088481868   -0.3801401965   -0.0521704663         -0.4694
C385       C    0.0061641077   -0.3193850953   -0.0526402315         -0.4722
C386       C    0.0111203484   -0.3347243064   -0.0787059957         -0.4699
C387       C    0.0126441376   -0.3651544896   -0.0783132283         -0.4684
H388       H    0.0050596870   -0.2948329872   -0.0544435775          0.5265
F389       F    0.0146801128   -0.3195949966   -0.1052935041         -0.4691
H390       H    0.0168678061   -0.3779917737   -0.0993545920         -0.4663
H391       H    0.0103051487   -0.4050127229   -0.0533690691         -0.4681
H392       H   -0.0153395883   -0.3389608306    0.0755486890          0.5197
H393       H   -0.0301356085   -0.3055593923    0.0590840693          0.5063
H394       H    0.0098814167   -0.3091885545    0.0671024138         -0.4609
C395       C   -0.0045527822   -0.2487853659   -0.0166995821           0.521
C396       C    0.0105379520   -0.2188842081    0.0001371164          -0.466
N397       N    0.0144950176   -0.2335179454    0.0307943871         -0.4605
N398       N    0.0207019816   -0.2665755907    0.0263504485         -0.4555
C399       C   -0.0039184039   -0.1836559789    0.0055730777          0.5224
H400       H    0.0193580758   -0.2760496732    0.0476835985         -0.4549
H401       H   -0.0061146390   -0.2334507666    0.0419328765          0.5237
H402       H    0.0095913793   -0.2525469969   -0.0369835042          -0.469
H403       H    0.0336247320   -0.2160784650   -0.0093646716         -0.4481
H404       H   -0.0280381944   -0.2442731453   -0.0244789050          0.5015
H405       H   -0.0251688510   -0.2758180807    0.0185225637          0.5071
C406       C    0.0031009766   -0.1513871343   -0.0141072603          0.5264
N407       N    0.0000000000   -0.1177261535   -0.0000000000          0.5245
N408       N   -0.0065046388   -0.1310701962    0.0204392185          0.5209
N409       N   -0.0049833641   -0.1620447718    0.0191975891          0.5223
H410       H   -0.0119636244   -0.1518934390   -0.0344256654          0.5128
H411       H    0.0263376531   -0.1531072926   -0.0238655178         -0.4556
H412       H    0.0016182273   -0.1797042998    0.0298019098         -0.4715
C337       C   -0.0000000000    0.1177261535    0.0000000000          0.5272
C338       C    0.0000602071    0.1347706502    0.0257882072          0.5254
C339       C   -0.0005527200    0.1658085988    0.0268384530          0.5245
C340       C   -0.0015535684    0.1838272743    0.0011310992          0.5252
C341       C   -0.0016319758    0.1666721844   -0.0254577825           0.527
C342       C   -0.0005682537    0.1347868596   -0.0259230829         -0.4718
C343       C   -0.0025725555    0.2215380769    0.0064352669          0.5236
C344       C   -0.0005703854    0.1789142007    0.0594886810          0.5223
H345       H    0.0006211169    0.1231917007    0.0478912870          0.5245
C346       C    0.0000390377    0.1198598035   -0.0529154650         -0.4694
C347       C   -0.0026857913    0.1806149047   -0.0529318120         -0.4722
C348       C   -0.0021383105    0.1652756936   -0.0794589425         -0.4699
C349       C   -0.0005703973    0.1348455104   -0.0793253464         -0.4684
H350       H   -0.0040750306    0.2051670128   -0.0545261193          0.5265
F351       F   -0.0030546797    0.1804050034   -0.1062680415         -0.4691
H352       H    0.0000912285    0.1220082263   -0.1007762348         -0.4663
H353       H    0.0012761151    0.0949872771   -0.0543399039         -0.4681
H354       H   -0.0025476927    0.1610391694    0.0770481450          0.5197
H355       H   -0.0198783483    0.1944406077    0.0632766419          0.5063
H356       H    0.0209151345    0.1908114455    0.0645207988         -0.4609
C357       C   -0.0072694924    0.2512146341   -0.0157085439           0.521
C358       C    0.0104137101    0.2811157919   -0.0016192206          -0.466
N359       N    0.0194195620    0.2664820546    0.0279513939         -0.4605
N360       N    0.0248000459    0.2334244093    0.0225361021         -0.4555
C361       C   -0.0029358774    0.3163440211    0.0061476587          0.5224
H362       H    0.0270265708    0.2239503268    0.0437952638         -0.4549
H363       H    0.0009519428    0.2665492334    0.0423656553          0.5237
H364       H    0.0033002775    0.2474530031   -0.0380641867          -0.469
H365       H    0.0315963697    0.2839215350   -0.0148320296         -0.4481
H366       H   -0.0317222869    0.2557268547   -0.0194693001          0.5015
H367       H   -0.0217338381    0.2241819193    0.0224543249          0.5071
C368       C    0.0007090348    0.3486128657   -0.0144266461          0.5264
N369       N    0.0000000000    0.3822738465    0.0000000000          0.5245
N370       N   -0.0030110112    0.3689298038    0.0212368970          0.5209
N371       N   -0.0017176818    0.3379552282    0.0197593248          0.5223
H372       H   -0.0175280552    0.3481065610   -0.0319534353          0.5128
H373       H    0.0219968002    0.3468927074   -0.0279173009         -0.4556
H374       H    0.0065572492    0.3202957002    0.0291165756         -0.4715
C299       C   -0.1177261535   -0.0000000000    0.0000000000          0.5272
C300       C   -0.1347706502   -0.0249441644   -0.0065439986          0.5254
C301       C   -0.1658085988   -0.0258024889   -0.0074053783          0.5245
C302       C   -0.1838272743   -0.0006956638   -0.0017913716          0.5252
C303       C   -0.1666721844    0.0250271503    0.0049400189           0.527
C304       C   -0.1347868596    0.0252046132    0.0060874143         -0.4718
C305       C   -0.2215380769   -0.0055621795   -0.0041343513          0.5236
C306       C   -0.1789142007   -0.0573600434   -0.0157814426          0.5223
H307       H   -0.1231917007   -0.0464542056   -0.0116605292          0.5245
C308       C   -0.1198598035    0.0511419299    0.0135849536         -0.4694
C309       C   -0.1806149047    0.0518553325    0.0109551215         -0.4722
C310       C   -0.1652756936    0.0773582158    0.0182757315         -0.4699
C311       C   -0.1348455104    0.0768276610    0.0197571873         -0.4684
H312       H   -0.2051670128    0.0537521733    0.0100203506          0.5265
F313       F   -0.1804050034    0.1035084396    0.0242534665         -0.4691
H314       H   -0.1220082263    0.0973942577    0.0258885379         -0.4663
H315       H   -0.0949872771    0.0522021840    0.0151454817         -0.4681
H316       H   -0.1610391694   -0.0738280714   -0.0221883586          0.5197
H317       H   -0.1944406077   -0.0560786095   -0.0354156985          0.5063
H318       H   -0.1908114455   -0.0677250946    0.0036997146         -0.4609
C319       C   -0.2512146341    0.0170461251   -0.0030055764           0.521
C320       C   -0.2811157919   -0.0011008226    0.0104811937          -0.466
N321       N   -0.2664820546   -0.0319915662    0.0116163464         -0.4605
N322       N   -0.2334244093   -0.0281342437    0.0182039146         -0.4555
C323       C   -0.3163440211   -0.0051911404   -0.0044119322          0.5224
H324       H   -0.2239503268   -0.0492549169    0.0149135449         -0.4549
H325       H   -0.2665492334   -0.0411974262   -0.0099260776          0.5237
H326       H   -0.2474530031    0.0359506775    0.0129353363          -0.469
H327       H   -0.2839215350    0.0062485321    0.0343405813         -0.4481
H328       H   -0.2557268547    0.0269418565   -0.0256806055          0.5015
H329       H   -0.2241819193   -0.0161417632   -0.0267581746          0.5071
C330       C   -0.3486128657    0.0137643175    0.0043788597          0.5264
N331       N   -0.3822738465   -0.0000000000    0.0000000000          0.5245
N332       N   -0.3689298038   -0.0197582564   -0.0083476516          0.5209
N333       N   -0.3379552282   -0.0186610412   -0.0067191432          0.5223
H334       H   -0.3481065610    0.0353759731   -0.0087632913          0.5128
H335       H   -0.3468927074    0.0213553493    0.0284109832         -0.4556
H336       H   -0.3202957002   -0.0298249547   -0.0011156029         -0.4715
C261       C    0.1177261535   -0.0000000000    0.0000000000          0.5272
C262       C    0.1347706502   -0.0188903477    0.0175553416          0.5254
C263       C    0.1658085988   -0.0192397027    0.0187200935          0.5245
C264       C    0.1838272743    0.0002334947    0.0019074697          0.5252
C265       C    0.1666721844    0.0197214968   -0.0161809950           0.527
C266       C    0.1347868596    0.0193356519   -0.0172760443         -0.4718
C267       C    0.2215380769   -0.0029480417    0.0062721409          0.5236
C268       C    0.1789142007   -0.0430925319    0.0410153898          0.5223
H269       H    0.1231917007   -0.0354288499    0.0322297650          0.5245
C270       C    0.1198598035    0.0386506226   -0.0361410755         -0.4694
C271       C    0.1806149047    0.0405221503   -0.0341605845         -0.4722
C272       C    0.1652756936    0.0595378749   -0.0526643842         -0.4699
C273       C    0.1348455104    0.0583701924   -0.0537192384         -0.4684
H274       H    0.2051670128    0.0426355666   -0.0342332006          0.5265
F275       F    0.1804050034    0.0797587125   -0.0702906501         -0.4691
H276       H    0.1220082263    0.0735976630   -0.0688421515         -0.4663
H277       H    0.0949872771    0.0388475289   -0.0380174056         -0.4681
H278       H    0.1610391694   -0.0545777646    0.0544442374          0.5197
H279       H    0.1944406077   -0.0326843903    0.0577131941          0.5063
H280       H    0.1908114455   -0.0614335836    0.0287452801         -0.4609
C281       C    0.2512146341    0.0164428933   -0.0054069518           0.521
C282       C    0.2811157919   -0.0059233821   -0.0087166953          -0.466
N283       N    0.2664820546   -0.0336834078    0.0048813773         -0.4605
N284       N    0.2334244093   -0.0333971830   -0.0027470608         -0.4555
C285       C    0.3163440211   -0.0024898699    0.0063414219          0.5224
H286       H    0.2239503268   -0.0504555550    0.0101339841         -0.4549
H287       H    0.2665492334   -0.0316157992    0.0282169485          0.5237
H288       H    0.2474530031    0.0255697874   -0.0283894365          -0.469
H289       H    0.2839215350   -0.0107220620   -0.0332168190         -0.4481
H290       H    0.2557268547    0.0358797126    0.0098996646          0.5015
H291       H    0.2241819193   -0.0015800242    0.0312099335          0.5071
C292       C    0.3486128657    0.0100609180   -0.0103638206          0.5264
N293       N    0.3822738465   -0.0000000000    0.0000000000          0.5245
N294       N    0.3689298038   -0.0134677038    0.0166940988          0.5209
N295       N    0.3379552282   -0.0132703505    0.0147403916          0.5223
H296       H    0.3481065610    0.0353177295   -0.0089951500          0.5128
H297       H    0.3468927074    0.0053935925   -0.0351303867         -0.4556
H298       H    0.3202957002   -0.0257570905    0.0150779567         -0.4715
C223       C    0.0000000000    0.0000000000   -0.3822738465          0.5272
C224       C   -0.0153010682   -0.0207584336   -0.3652293498          0.5254
C225       C   -0.0164187161   -0.0212375568   -0.3341914012          0.5245
C226       C   -0.0019216428    0.0000157865   -0.3161727257          0.5252
C227       C    0.0138413713    0.0214284502   -0.3333278156           0.527
C228       C    0.0149730975    0.0211692109   -0.3652131404         -0.4718
C229       C   -0.0058975729   -0.0036399637   -0.2784619231          0.5236
C230       C   -0.0358667170   -0.0474637453   -0.3210857993          0.5223
H231       H   -0.0280063556   -0.0388536382   -0.3768082993          0.5245
C232       C    0.0315272859    0.0424979788   -0.3801401965         -0.4694
C233       C    0.0293474284    0.0441329655   -0.3193850953         -0.4722
C234       C    0.0455766316    0.0651234717   -0.3347243064         -0.4699
C235       C    0.0467570397    0.0640828774   -0.3651544896         -0.4684
H236       H    0.0291800299    0.0462409928   -0.2948329872          0.5265
F237       F    0.0607973617    0.0872118600   -0.3195949966         -0.4691
H238       H    0.0600565263    0.0809263336   -0.3779917737         -0.4663
H239       H    0.0333692058    0.0429062902   -0.4050127229         -0.4681
H240       H   -0.0479072219   -0.0603970650   -0.3389608306          0.5197
H241       H   -0.0536366323   -0.0390153024   -0.3055593923          0.5063
H242       H   -0.0215968011   -0.0642958359   -0.3091885545         -0.4609
C243       C    0.0035083759    0.0169497837   -0.2487853659           0.521
C244       C    0.0093319115   -0.0048972094   -0.2188842081          -0.466
N245       N   -0.0010320499   -0.0340196220   -0.2335179454         -0.4605
N246       N    0.0065147851   -0.0328705910   -0.2665755907         -0.4555
C247       C   -0.0060183392   -0.0031925972   -0.1836559789          0.5224
H248       H   -0.0043497559   -0.0512790433   -0.2760496732         -0.4549
H249       H   -0.0244515922   -0.0346103247   -0.2334507666          0.5237
H250       H    0.0253082582    0.0286228266   -0.2525469969          -0.469
H251       H    0.0342180566   -0.0068879808   -0.2160784650         -0.4481
H252       H   -0.0139026788    0.0345264052   -0.2442731453          0.5015
H253       H   -0.0308297155   -0.0051073540   -0.2758180807          0.5071
C254       C    0.0091566701    0.0111707761   -0.1513871343          0.5264
N255       N   -0.0000000000    0.0000000000   -0.1177261535          0.5245
N256       N   -0.0150600091   -0.0152731171   -0.1310701962          0.5209
N257       N   -0.0131412614   -0.0148555913   -0.1620447718          0.5223
H258       H    0.0049340686    0.0361096900   -0.1518934390          0.5128
H259       H    0.0342926522    0.0093407128   -0.1531072926         -0.4556
H260       H   -0.0120613327   -0.0273001235   -0.1797042998         -0.4715
C185       C   -0.0000000000   -0.0000000000    0.1177261535          0.5272
C186       C    0.0141368300    0.0215681546    0.1347706502          0.5254
C187       C    0.0152264502    0.0221079911    0.1658085988          0.5245
C188       C    0.0019196050    0.0000898711    0.1838272743          0.5252
C189       C   -0.0126425089   -0.0221569178    0.1666721844           0.527
C190       C   -0.0137867745   -0.0219602821    0.1347868596         -0.4718
C191       C    0.0056885648    0.0039586528    0.2215380769          0.5236
C192       C    0.0332033770    0.0493635925    0.1789142007          0.5223
H193       H    0.0258282031    0.0403344156    0.1231917007          0.5245
C194       C   -0.0291434783   -0.0441667933    0.1198598035         -0.4694
C195       C   -0.0268770406   -0.0456794799    0.1806149047         -0.4722
C196       C   -0.0419278450   -0.0675303763    0.1652756936         -0.4699
C197       C   -0.0431636703   -0.0665562432    0.1348455104         -0.4684
H198       H   -0.0265940157   -0.0477751179    0.2051670128          0.5265
F199       F   -0.0559113499   -0.0904220585    0.1804050034         -0.4691
H200       H   -0.0555171536   -0.0841053118    0.1220082263         -0.4663
H201       H   -0.0309601680   -0.0446757387    0.0949872771         -0.4681
H202       H    0.0445147246    0.0629392300    0.1610391694          0.5197
H203       H    0.0514108394    0.0419047459    0.1944406077          0.5063
H204       H    0.0180297681    0.0653858072    0.1908114455         -0.4609
C205       C   -0.0025713321   -0.0171170126    0.2512146341           0.521
C206       C   -0.0095870038    0.0043768244    0.2811157919          -0.466
N207       N   -0.0008395882    0.0340249159    0.2664820546         -0.4605
N208       N   -0.0083118494    0.0324627685    0.2334244093         -0.4555
C209       C    0.0058337405    0.0035186014    0.3163440211          0.5224
H210       H    0.0015243413    0.0514406167    0.2239503268         -0.4549
H211       H    0.0225120719    0.0359021108    0.2665492334          0.5237
H212       H   -0.0236965787   -0.0299707573    0.2474530031          -0.469
H213       H   -0.0345449542    0.0049965804    0.2839215350         -0.4481
H214       H    0.0157795934   -0.0337099624    0.2557268547          0.5015
H215       H    0.0305023462    0.0067943583    0.2241819193          0.5071
C216       C   -0.0085287612   -0.0116572329    0.3486128657          0.5264
N217       N   -0.0000000000    0.0000000000    0.3822738465          0.5245
N218       N    0.0141976662    0.0160778809    0.3689298038          0.5209
N219       N    0.0123047714    0.0155555118    0.3379552282          0.5223
H220       H   -0.0029416383   -0.0363263198    0.3481065610          0.5128
H221       H   -0.0337273367   -0.0112116757    0.3468927074         -0.4556
H222       H    0.0105423927    0.0279218632    0.3202957002         -0.4715
loop_
_geom_bond_atom_site_label_1
_geom_bond_atom_site_label_2
_geom_bond_distance
_geom_bond_site_symmetry_2
_ccdc_geom_bond_type
Zn1          O5 1.942       .   S
Zn1          O6 1.922       .   S
Zn1         O10 1.922       .   S
Zn1         O17 1.922       .   S
Zn2          O5 1.942       .   S
Zn2          O7 1.922       .   S
Zn2          O9 1.922       .   S
Zn2         O13 1.922       .   S
Zn3          O5 1.942       .   S
Zn3          O8 1.922       .   S
Zn3         O11 1.922       .   S
Zn3         O14 1.922       .   S
Zn4          O5 1.942       .   S
Zn4         O12 1.922       .   S
Zn4         O15 1.922       .   S
Zn4         O16 1.922       .   S
O6          C18 1.304       .   A
O7          C19 1.304       .   A
O8          C20 1.304       .   A
O9          C18 1.304       .   A
O10         C20 1.304       .   A
O11         C19 1.304       .   A
O12         C21 1.304       .   A
O13         C22 1.304       .   A
O14         C21 1.304       .   A
O15         C22 1.304       .   A
O16         C23 1.304       .   A
O17         C23 1.304       .   A
C18        C337 1.540       .   S
C19        C261 1.540       .   S
C20        C185 1.540       .   S
C21        N407 1.540       .   S
C22        N255 1.540       .   S
C23        C299 1.540       .   S
Zn24        O28 1.942       .   S
Zn24        O29 1.922       .   S
Zn24        O33 1.922       .   S
Zn24        O40 1.922       .   S
Zn25        O28 1.942       .   S
Zn25        O30 1.922       .   S
Zn25        O32 1.922       .   S
Zn25        O36 1.922       .   S
Zn26        O28 1.942       .   S
Zn26        O31 1.922       .   S
Zn26        O34 1.922       .   S
Zn26        O37 1.922       .   S
Zn27        O28 1.942       .   S
Zn27        O35 1.922       .   S
Zn27        O38 1.922       .   S
Zn27        O39 1.922       .   S
O29         C41 1.304       .   A
O30         C42 1.304       .   A
O31         C43 1.304       .   A
O32         C41 1.304       .   A
O33         C43 1.304       .   A
O34         C42 1.304       .   A
O35         C44 1.304       .   A
O36         C45 1.304       .   A
O37         C44 1.304       .   A
O38         C45 1.304       .   A
O39         C46 1.304       .   A
O40         C46 1.304       .   A
C41        N217 1.540   1_655   S
C42        C413 1.540       .   S
C43        N521 1.540       .   S
C44        C223 1.540   1_656   S
C45        N559 1.540       .   S
C46        N483 1.540       .   S
Zn47        O51 1.942       .   S
Zn47        O52 1.922       .   S
Zn47        O56 1.922       .   S
Zn47        O63 1.922       .   S
Zn48        O51 1.942       .   S
Zn48        O53 1.922       .   S
Zn48        O55 1.922       .   S
Zn48        O59 1.922       .   S
Zn49        O51 1.942       .   S
Zn49        O54 1.922       .   S
Zn49        O57 1.922       .   S
Zn49        O60 1.922       .   S
Zn50        O51 1.942       .   S
Zn50        O58 1.922       .   S
Zn50        O61 1.922       .   S
Zn50        O62 1.922       .   S
O52         C64 1.304       .   A
O53         C65 1.304       .   A
O54         C66 1.304       .   A
O55         C64 1.304       .   A
O56         C66 1.304       .   A
O57         C65 1.304       .   A
O58         C67 1.304       .   A
O59         C68 1.304       .   A
O60         C67 1.304       .   A
O61         C68 1.304       .   A
O62         C69 1.304       .   A
O63         C69 1.304       .   A
C64        N369 1.540   1_655   S
C65        N597 1.540       .   S
C66        C641 1.540       .   S
C67        C375 1.540   1_665   S
C68        N711 1.540       .   S
C69        C603 1.540       .   S
Zn70        O74 1.942       .   S
Zn70        O75 1.922       .   S
Zn70        O79 1.922       .   S
Zn70        O86 1.922       .   S
Zn71        O74 1.942       .   S
Zn71        O76 1.922       .   S
Zn71        O78 1.922       .   S
Zn71        O82 1.922       .   S
Zn72        O74 1.942       .   S
Zn72        O77 1.922       .   S
Zn72        O80 1.922       .   S
Zn72        O83 1.922       .   S
Zn73        O74 1.942       .   S
Zn73        O81 1.922       .   S
Zn73        O84 1.922       .   S
Zn73        O85 1.922       .   S
O75         C87 1.304       .   A
O76         C88 1.304       .   A
O77         C89 1.304       .   A
O78         C87 1.304       .   A
O79         C89 1.304       .   A
O80         C88 1.304       .   A
O81         C90 1.304       .   A
O82         C91 1.304       .   A
O83         C90 1.304       .   A
O84         C91 1.304       .   A
O85         C92 1.304       .   A
O86         C92 1.304       .   A
C87        C489 1.540       .   S
C88        C565 1.540       .   S
C89        C755 1.540       .   S
C90        C527 1.540   1_565   S
C91        C717 1.540       .   S
C92        N635 1.540   1_556   S
Zn93        O97 1.942       .   S
Zn93        O98 1.922       .   S
Zn93       O102 1.922       .   S
Zn93       O109 1.922       .   S
Zn94        O97 1.942       .   S
Zn94        O99 1.922       .   S
Zn94       O101 1.922       .   S
Zn94       O105 1.922       .   S
Zn95        O97 1.942       .   S
Zn95       O100 1.922       .   S
Zn95       O103 1.922       .   S
Zn95       O106 1.922       .   S
Zn96        O97 1.942       .   S
Zn96       O104 1.922       .   S
Zn96       O107 1.922       .   S
Zn96       O108 1.922       .   S
O98        C110 1.304       .   A
O99        C111 1.304       .   A
O100       C112 1.304       .   A
O101       C110 1.304       .   A
O102       C112 1.304       .   A
O103       C111 1.304       .   A
O104       C113 1.304       .   A
O105       C114 1.304       .   A
O106       C113 1.304       .   A
O107       C114 1.304       .   A
O108       C115 1.304       .   A
O109       C115 1.304       .   A
C110       N293 1.540   1_565   S
C111       C793 1.540       .   S
C112       C907 1.540       .   S
C113       N331 1.540   1_665   S
C114       C869 1.540       .   S
C115       C831 1.540       .   S
Zn116      O120 1.942       .   S
Zn116      O121 1.922       .   S
Zn116      O125 1.922       .   S
Zn116      O132 1.922       .   S
Zn117      O120 1.942       .   S
Zn117      O122 1.922       .   S
Zn117      O124 1.922       .   S
Zn117      O128 1.922       .   S
Zn118      O120 1.942       .   S
Zn118      O123 1.922       .   S
Zn118      O126 1.922       .   S
Zn118      O129 1.922       .   S
Zn119      O120 1.942       .   S
Zn119      O127 1.922       .   S
Zn119      O130 1.922       .   S
Zn119      O131 1.922       .   S
O121       C133 1.304       .   A
O122       C134 1.304       .   A
O123       C135 1.304       .   A
O124       C133 1.304       .   A
O125       C135 1.304       .   A
O126       C134 1.304       .   A
O127       C136 1.304       .   A
O128       C137 1.304       .   A
O129       C136 1.304       .   A
O130       C137 1.304       .   A
O131       C138 1.304       .   A
O132       C138 1.304       .   A
C133       N977 1.540       .   S
C134       N445 1.540   1_465   S
C135       N825 1.540       .   S
C136      N1015 1.540       .   S
C137       N863 1.540   1_556   S
C138       C451 1.540   1_565   S
Zn139      O143 1.942       .   S
Zn139      O144 1.922       .   S
Zn139      O148 1.922       .   S
Zn139      O155 1.922       .   S
Zn140      O143 1.942       .   S
Zn140      O145 1.922       .   S
Zn140      O147 1.922       .   S
Zn140      O151 1.922       .   S
Zn141      O143 1.942       .   S
Zn141      O146 1.922       .   S
Zn141      O149 1.922       .   S
Zn141      O152 1.922       .   S
Zn142      O143 1.942       .   S
Zn142      O150 1.922       .   S
Zn142      O153 1.922       .   S
Zn142      O154 1.922       .   S
O144       C156 1.304       .   A
O145       C157 1.304       .   A
O146       C158 1.304       .   A
O147       C156 1.304       .   A
O148       C158 1.304       .   A
O149       C157 1.304       .   A
O150       C159 1.304       .   A
O151       C160 1.304       .   A
O152       C159 1.304       .   A
O153       C160 1.304       .   A
O154       C161 1.304       .   A
O155       C161 1.304       .   A
C156       N673 1.540   1_455   S
C157       N901 1.540   1_545   S
C158      C1059 1.540       .   S
C159       C679 1.540       .   S
C160      C1021 1.540       .   S
C161       N939 1.540       .   S
Zn162      O166 1.942       .   S
Zn162      O167 1.922       .   S
Zn162      O171 1.922       .   S
Zn162      O178 1.922       .   S
Zn163      O166 1.942       .   S
Zn163      O168 1.922       .   S
Zn163      O170 1.922       .   S
Zn163      O174 1.922       .   S
Zn164      O166 1.942       .   S
Zn164      O169 1.922       .   S
Zn164      O172 1.922       .   S
Zn164      O175 1.922       .   S
Zn165      O166 1.942       .   S
Zn165      O173 1.922       .   S
Zn165      O176 1.922       .   S
Zn165      O177 1.922       .   S
O167       C179 1.304       .   A
O168       C180 1.304       .   A
O169       C181 1.304       .   A
O170       C179 1.304       .   A
O171       C181 1.304       .   A
O172       C180 1.304       .   A
O173       C182 1.304       .   A
O174       C183 1.304       .   A
O175       C182 1.304       .   A
O176       C183 1.304       .   A
O177       C184 1.304       .   A
O178       C184 1.304       .   A
C179       C983 1.540       .   S
C180      N1091 1.540   1_556   S
C181       N749 1.540   1_455   S
C182       C945 1.540   1_545   S
C183       N787 1.540       .   S
C184      N1053 1.540       .   S
C1059     C1060 0.025       .   A
C1059     C1064 0.025       .   A
C1060     C1061 0.025       .   A
C1060     H1067 0.020       .   A
C1061     C1062 0.025       .   A
C1061     C1066 0.028       .   A
C1062     C1063 0.026       .   A
C1062     C1065 0.031       .   A
C1063     C1064 0.026       .   A
C1063     C1069 0.025       .   A
C1064     C1068 0.025       .   A
C1065     C1079 0.030       .   A
C1065     N1082 0.027       .   A
C1065     H1089 0.020       .   A
C1066     H1076 0.020       .   A
C1066     H1077 0.020       .   A
C1066     H1078 0.020       .   A
C1068     C1071 0.025       .   A
C1068     H1075 0.020       .   A
C1069     C1070 0.025       .   A
C1069     H1072 0.020       .   A
C1070     C1071 0.025       .   A
C1070     F1073 0.025       .   A
C1071     H1074 0.020       .   A
C1079     C1080 0.030       .   A
C1079     H1086 0.020       .   A
C1079     H1088 0.020       .   A
C1080     N1081 0.028       .   A
C1080     C1083 0.031       .   A
C1080     H1087 0.020       .   A
N1081     N1082 0.027       .   A
N1081     H1085 0.019       .   A
N1082     H1084 0.019       .   A
C1083     C1090 0.031       .   A
C1083     N1093 0.021       .   A
C1083     H1096 0.020       .   A
C1090     N1091 0.030       .   A
C1090     H1094 0.020       .   A
C1090     H1095 0.020       .   A
N1091     N1092 0.020       .   A
N1092     N1093 0.025       .   A
C1021     C1022 0.025       .   A
C1021     C1026 0.025       .   A
C1022     C1023 0.025       .   A
C1022     H1029 0.020       .   A
C1023     C1024 0.025       .   A
C1023     C1028 0.028       .   A
C1024     C1025 0.026       .   A
C1024     C1027 0.031       .   A
C1025     C1026 0.026       .   A
C1025     C1031 0.025       .   A
C1026     C1030 0.025       .   A
C1027     C1041 0.030       .   A
C1027     N1044 0.027       .   A
C1027     H1051 0.020       .   A
C1028     H1038 0.020       .   A
C1028     H1039 0.020       .   A
C1028     H1040 0.020       .   A
C1030     C1033 0.025       .   A
C1030     H1037 0.020       .   A
C1031     C1032 0.025       .   A
C1031     H1034 0.020       .   A
C1032     C1033 0.025       .   A
C1032     F1035 0.025       .   A
C1033     H1036 0.020       .   A
C1041     C1042 0.030       .   A
C1041     H1048 0.020       .   A
C1041     H1050 0.020       .   A
C1042     N1043 0.028       .   A
C1042     C1045 0.031       .   A
C1042     H1049 0.020       .   A
N1043     N1044 0.027       .   A
N1043     H1047 0.019       .   A
N1044     H1046 0.019       .   A
C1045     C1052 0.031       .   A
C1045     N1055 0.021       .   A
C1045     H1058 0.020       .   A
C1052     N1053 0.030       .   A
C1052     H1056 0.020       .   A
C1052     H1057 0.020       .   A
N1053     N1054 0.020       .   A
N1054     N1055 0.025       .   A
C983       C984 0.025       .   A
C983       C988 0.025       .   A
C984       C985 0.025       .   A
C984       H991 0.020       .   A
C985       C986 0.025       .   A
C985       C990 0.028       .   A
C986       C987 0.026       .   A
C986       C989 0.031       .   A
C987       C988 0.026       .   A
C987       C993 0.025       .   A
C988       C992 0.025       .   A
C989      C1003 0.030       .   A
C989      N1006 0.027       .   A
C989      H1013 0.020       .   A
C990      H1000 0.020       .   A
C990      H1001 0.020       .   A
C990      H1002 0.020       .   A
C992       C995 0.025       .   A
C992       H999 0.020       .   A
C993       C994 0.025       .   A
C993       H996 0.020       .   A
C994       C995 0.025       .   A
C994       F997 0.025       .   A
C995       H998 0.020       .   A
C1003     C1004 0.030       .   A
C1003     H1010 0.020       .   A
C1003     H1012 0.020       .   A
C1004     N1005 0.028       .   A
C1004     C1007 0.031       .   A
C1004     H1011 0.020       .   A
N1005     N1006 0.027       .   A
N1005     H1009 0.019       .   A
N1006     H1008 0.019       .   A
C1007     C1014 0.031       .   A
C1007     N1017 0.021       .   A
C1007     H1020 0.020       .   A
C1014     N1015 0.030       .   A
C1014     H1018 0.020       .   A
C1014     H1019 0.020       .   A
N1015     N1016 0.020       .   A
N1016     N1017 0.025       .   A
C945       C946 0.025       .   A
C945       C950 0.025       .   A
C946       C947 0.025       .   A
C946       H953 0.020       .   A
C947       C948 0.025       .   A
C947       C952 0.028       .   A
C948       C949 0.026       .   A
C948       C951 0.031       .   A
C949       C950 0.026       .   A
C949       C955 0.025       .   A
C950       C954 0.025       .   A
C951       C965 0.030       .   A
C951       N968 0.027       .   A
C951       H975 0.020       .   A
C952       H962 0.020       .   A
C952       H963 0.020       .   A
C952       H964 0.020       .   A
C954       C957 0.025       .   A
C954       H961 0.020       .   A
C955       C956 0.025       .   A
C955       H958 0.020       .   A
C956       C957 0.025       .   A
C956       F959 0.025       .   A
C957       H960 0.020       .   A
C965       C966 0.030       .   A
C965       H972 0.020       .   A
C965       H974 0.020       .   A
C966       N967 0.028       .   A
C966       C969 0.031       .   A
C966       H973 0.020       .   A
N967       N968 0.027       .   A
N967       H971 0.019       .   A
N968       H970 0.019       .   A
C969       C976 0.031       .   A
C969       N979 0.021       .   A
C969       H982 0.020       .   A
C976       N977 0.030       .   A
C976       H980 0.020       .   A
C976       H981 0.020       .   A
N977       N978 0.020       .   A
N978       N979 0.025       .   A
C907       C908 0.025       .   A
C907       C912 0.025       .   A
C908       C909 0.025       .   A
C908       H915 0.020       .   A
C909       C910 0.025       .   A
C909       C914 0.028       .   A
C910       C911 0.026       .   A
C910       C913 0.031       .   A
C911       C912 0.026       .   A
C911       C917 0.025       .   A
C912       C916 0.025       .   A
C913       C927 0.030       .   A
C913       N930 0.027       .   A
C913       H937 0.020       .   A
C914       H924 0.020       .   A
C914       H925 0.020       .   A
C914       H926 0.020       .   A
C916       C919 0.025       .   A
C916       H923 0.020       .   A
C917       C918 0.025       .   A
C917       H920 0.020       .   A
C918       C919 0.025       .   A
C918       F921 0.025       .   A
C919       H922 0.020       .   A
C927       C928 0.030       .   A
C927       H934 0.020       .   A
C927       H936 0.020       .   A
C928       N929 0.028       .   A
C928       C931 0.031       .   A
C928       H935 0.020       .   A
N929       N930 0.027       .   A
N929       H933 0.019       .   A
N930       H932 0.019       .   A
C931       C938 0.031       .   A
C931       N941 0.021       .   A
C931       H944 0.020       .   A
C938       N939 0.030       .   A
C938       H942 0.020       .   A
C938       H943 0.020       .   A
N939       N940 0.020       .   A
N940       N941 0.025       .   A
C869       C870 0.025       .   A
C869       C874 0.025       .   A
C870       C871 0.025       .   A
C870       H877 0.020       .   A
C871       C872 0.025       .   A
C871       C876 0.028       .   A
C872       C873 0.026       .   A
C872       C875 0.031       .   A
C873       C874 0.026       .   A
C873       C879 0.025       .   A
C874       C878 0.025       .   A
C875       C889 0.030       .   A
C875       N892 0.027       .   A
C875       H899 0.020       .   A
C876       H886 0.020       .   A
C876       H887 0.020       .   A
C876       H888 0.020       .   A
C878       C881 0.025       .   A
C878       H885 0.020       .   A
C879       C880 0.025       .   A
C879       H882 0.020       .   A
C880       C881 0.025       .   A
C880       F883 0.025       .   A
C881       H884 0.020       .   A
C889       C890 0.030       .   A
C889       H896 0.020       .   A
C889       H898 0.020       .   A
C890       N891 0.028       .   A
C890       C893 0.031       .   A
C890       H897 0.020       .   A
N891       N892 0.027       .   A
N891       H895 0.019       .   A
N892       H894 0.019       .   A
C893       C900 0.031       .   A
C893       N903 0.021       .   A
C893       H906 0.020       .   A
C900       N901 0.030       .   A
C900       H904 0.020       .   A
C900       H905 0.020       .   A
N901       N902 0.020       .   A
N902       N903 0.025       .   A
C831       C832 0.025       .   A
C831       C836 0.025       .   A
C832       C833 0.025       .   A
C832       H839 0.020       .   A
C833       C834 0.025       .   A
C833       C838 0.028       .   A
C834       C835 0.026       .   A
C834       C837 0.031       .   A
C835       C836 0.026       .   A
C835       C841 0.025       .   A
C836       C840 0.025       .   A
C837       C851 0.030       .   A
C837       N854 0.027       .   A
C837       H861 0.020       .   A
C838       H848 0.020       .   A
C838       H849 0.020       .   A
C838       H850 0.020       .   A
C840       C843 0.025       .   A
C840       H847 0.020       .   A
C841       C842 0.025       .   A
C841       H844 0.020       .   A
C842       C843 0.025       .   A
C842       F845 0.025       .   A
C843       H846 0.020       .   A
C851       C852 0.030       .   A
C851       H858 0.020       .   A
C851       H860 0.020       .   A
C852       N853 0.028       .   A
C852       C855 0.031       .   A
C852       H859 0.020       .   A
N853       N854 0.027       .   A
N853       H857 0.019       .   A
N854       H856 0.019       .   A
C855       C862 0.031       .   A
C855       N865 0.021       .   A
C855       H868 0.020       .   A
C862       N863 0.030       .   A
C862       H866 0.020       .   A
C862       H867 0.020       .   A
N863       N864 0.020       .   A
N864       N865 0.025       .   A
C793       C794 0.025       .   A
C793       C798 0.025       .   A
C794       C795 0.025       .   A
C794       H801 0.020       .   A
C795       C796 0.025       .   A
C795       C800 0.028       .   A
C796       C797 0.026       .   A
C796       C799 0.031       .   A
C797       C798 0.026       .   A
C797       C803 0.025       .   A
C798       C802 0.025       .   A
C799       C813 0.030       .   A
C799       N816 0.027       .   A
C799       H823 0.020       .   A
C800       H810 0.020       .   A
C800       H811 0.020       .   A
C800       H812 0.020       .   A
C802       C805 0.025       .   A
C802       H809 0.020       .   A
C803       C804 0.025       .   A
C803       H806 0.020       .   A
C804       C805 0.025       .   A
C804       F807 0.025       .   A
C805       H808 0.020       .   A
C813       C814 0.030       .   A
C813       H820 0.020       .   A
C813       H822 0.020       .   A
C814       N815 0.028       .   A
C814       C817 0.031       .   A
C814       H821 0.020       .   A
N815       N816 0.027       .   A
N815       H819 0.019       .   A
N816       H818 0.019       .   A
C817       C824 0.031       .   A
C817       N827 0.021       .   A
C817       H830 0.020       .   A
C824       N825 0.030       .   A
C824       H828 0.020       .   A
C824       H829 0.020       .   A
N825       N826 0.020       .   A
N826       N827 0.025       .   A
C755       C756 0.025       .   A
C755       C760 0.025       .   A
C756       C757 0.025       .   A
C756       H763 0.020       .   A
C757       C758 0.025       .   A
C757       C762 0.028       .   A
C758       C759 0.026       .   A
C758       C761 0.031       .   A
C759       C760 0.026       .   A
C759       C765 0.025       .   A
C760       C764 0.025       .   A
C761       C775 0.030       .   A
C761       N778 0.027       .   A
C761       H785 0.020       .   A
C762       H772 0.020       .   A
C762       H773 0.020       .   A
C762       H774 0.020       .   A
C764       C767 0.025       .   A
C764       H771 0.020       .   A
C765       C766 0.025       .   A
C765       H768 0.020       .   A
C766       C767 0.025       .   A
C766       F769 0.025       .   A
C767       H770 0.020       .   A
C775       C776 0.030       .   A
C775       H782 0.020       .   A
C775       H784 0.020       .   A
C776       N777 0.028       .   A
C776       C779 0.031       .   A
C776       H783 0.020       .   A
N777       N778 0.027       .   A
N777       H781 0.019       .   A
N778       H780 0.019       .   A
C779       C786 0.031       .   A
C779       N789 0.021       .   A
C779       H792 0.020       .   A
C786       N787 0.030       .   A
C786       H790 0.020       .   A
C786       H791 0.020       .   A
N787       N788 0.020       .   A
N788       N789 0.025       .   A
C717       C718 0.025       .   A
C717       C722 0.025       .   A
C718       C719 0.025       .   A
C718       H725 0.020       .   A
C719       C720 0.025       .   A
C719       C724 0.028       .   A
C720       C721 0.026       .   A
C720       C723 0.031       .   A
C721       C722 0.026       .   A
C721       C727 0.025       .   A
C722       C726 0.025       .   A
C723       C737 0.030       .   A
C723       N740 0.027       .   A
C723       H747 0.020       .   A
C724       H734 0.020       .   A
C724       H735 0.020       .   A
C724       H736 0.020       .   A
C726       C729 0.025       .   A
C726       H733 0.020       .   A
C727       C728 0.025       .   A
C727       H730 0.020       .   A
C728       C729 0.025       .   A
C728       F731 0.025       .   A
C729       H732 0.020       .   A
C737       C738 0.030       .   A
C737       H744 0.020       .   A
C737       H746 0.020       .   A
C738       N739 0.028       .   A
C738       C741 0.031       .   A
C738       H745 0.020       .   A
N739       N740 0.027       .   A
N739       H743 0.019       .   A
N740       H742 0.019       .   A
C741       C748 0.031       .   A
C741       N751 0.021       .   A
C741       H754 0.020       .   A
C748       N749 0.030       .   A
C748       H752 0.020       .   A
C748       H753 0.020       .   A
N749       N750 0.020       .   A
N750       N751 0.025       .   A
C679       C680 0.025       .   A
C679       C684 0.025       .   A
C680       C681 0.025       .   A
C680       H687 0.020       .   A
C681       C682 0.025       .   A
C681       C686 0.028       .   A
C682       C683 0.026       .   A
C682       C685 0.031       .   A
C683       C684 0.026       .   A
C683       C689 0.025       .   A
C684       C688 0.025       .   A
C685       C699 0.030       .   A
C685       N702 0.027       .   A
C685       H709 0.020       .   A
C686       H696 0.020       .   A
C686       H697 0.020       .   A
C686       H698 0.020       .   A
C688       C691 0.025       .   A
C688       H695 0.020       .   A
C689       C690 0.025       .   A
C689       H692 0.020       .   A
C690       C691 0.025       .   A
C690       F693 0.025       .   A
C691       H694 0.020       .   A
C699       C700 0.030       .   A
C699       H706 0.020       .   A
C699       H708 0.020       .   A
C700       N701 0.028       .   A
C700       C703 0.031       .   A
C700       H707 0.020       .   A
N701       N702 0.027       .   A
N701       H705 0.019       .   A
N702       H704 0.019       .   A
C703       C710 0.031       .   A
C703       N713 0.021       .   A
C703       H716 0.020       .   A
C710       N711 0.030       .   A
C710       H714 0.020       .   A
C710       H715 0.020       .   A
N711       N712 0.020       .   A
N712       N713 0.025       .   A
C641       C642 0.025       .   A
C641       C646 0.025       .   A
C642       C643 0.025       .   A
C642       H649 0.020       .   A
C643       C644 0.025       .   A
C643       C648 0.028       .   A
C644       C645 0.026       .   A
C644       C647 0.031       .   A
C645       C646 0.026       .   A
C645       C651 0.025       .   A
C646       C650 0.025       .   A
C647       C661 0.030       .   A
C647       N664 0.027       .   A
C647       H671 0.020       .   A
C648       H658 0.020       .   A
C648       H659 0.020       .   A
C648       H660 0.020       .   A
C650       C653 0.025       .   A
C650       H657 0.020       .   A
C651       C652 0.025       .   A
C651       H654 0.020       .   A
C652       C653 0.025       .   A
C652       F655 0.025       .   A
C653       H656 0.020       .   A
C661       C662 0.030       .   A
C661       H668 0.020       .   A
C661       H670 0.020       .   A
C662       N663 0.028       .   A
C662       C665 0.031       .   A
C662       H669 0.020       .   A
N663       N664 0.027       .   A
N663       H667 0.019       .   A
N664       H666 0.019       .   A
C665       C672 0.031       .   A
C665       N675 0.021       .   A
C665       H678 0.020       .   A
C672       N673 0.030       .   A
C672       H676 0.020       .   A
C672       H677 0.020       .   A
N673       N674 0.020       .   A
N674       N675 0.025       .   A
C603       C604 0.025       .   A
C603       C608 0.025       .   A
C604       C605 0.025       .   A
C604       H611 0.020       .   A
C605       C606 0.025       .   A
C605       C610 0.028       .   A
C606       C607 0.026       .   A
C606       C609 0.031       .   A
C607       C608 0.026       .   A
C607       C613 0.025       .   A
C608       C612 0.025       .   A
C609       C623 0.030       .   A
C609       N626 0.027       .   A
C609       H633 0.020       .   A
C610       H620 0.020       .   A
C610       H621 0.020       .   A
C610       H622 0.020       .   A
C612       C615 0.025       .   A
C612       H619 0.020       .   A
C613       C614 0.025       .   A
C613       H616 0.020       .   A
C614       C615 0.025       .   A
C614       F617 0.025       .   A
C615       H618 0.020       .   A
C623       C624 0.030       .   A
C623       H630 0.020       .   A
C623       H632 0.020       .   A
C624       N625 0.028       .   A
C624       C627 0.031       .   A
C624       H631 0.020       .   A
N625       N626 0.027       .   A
N625       H629 0.019       .   A
N626       H628 0.019       .   A
C627       C634 0.031       .   A
C627       N637 0.021       .   A
C627       H640 0.020       .   A
C634       N635 0.030       .   A
C634       H638 0.020       .   A
C634       H639 0.020       .   A
N635       N636 0.020       .   A
N636       N637 0.025       .   A
C565       C566 0.025       .   A
C565       C570 0.025       .   A
C566       C567 0.025       .   A
C566       H573 0.020       .   A
C567       C568 0.025       .   A
C567       C572 0.028       .   A
C568       C569 0.026       .   A
C568       C571 0.031       .   A
C569       C570 0.026       .   A
C569       C575 0.025       .   A
C570       C574 0.025       .   A
C571       C585 0.030       .   A
C571       N588 0.027       .   A
C571       H595 0.020       .   A
C572       H582 0.020       .   A
C572       H583 0.020       .   A
C572       H584 0.020       .   A
C574       C577 0.025       .   A
C574       H581 0.020       .   A
C575       C576 0.025       .   A
C575       H578 0.020       .   A
C576       C577 0.025       .   A
C576       F579 0.025       .   A
C577       H580 0.020       .   A
C585       C586 0.030       .   A
C585       H592 0.020       .   A
C585       H594 0.020       .   A
C586       N587 0.028       .   A
C586       C589 0.031       .   A
C586       H593 0.020       .   A
N587       N588 0.027       .   A
N587       H591 0.019       .   A
N588       H590 0.019       .   A
C589       C596 0.031       .   A
C589       N599 0.021       .   A
C589       H602 0.020       .   A
C596       N597 0.030       .   A
C596       H600 0.020       .   A
C596       H601 0.020       .   A
N597       N598 0.020       .   A
N598       N599 0.025       .   A
C527       C528 0.025       .   A
C527       C532 0.025       .   A
C528       C529 0.025       .   A
C528       H535 0.020       .   A
C529       C530 0.025       .   A
C529       C534 0.028       .   A
C530       C531 0.026       .   A
C530       C533 0.031       .   A
C531       C532 0.026       .   A
C531       C537 0.025       .   A
C532       C536 0.025       .   A
C533       C547 0.030       .   A
C533       N550 0.027       .   A
C533       H557 0.020       .   A
C534       H544 0.020       .   A
C534       H545 0.020       .   A
C534       H546 0.020       .   A
C536       C539 0.025       .   A
C536       H543 0.020       .   A
C537       C538 0.025       .   A
C537       H540 0.020       .   A
C538       C539 0.025       .   A
C538       F541 0.025       .   A
C539       H542 0.020       .   A
C547       C548 0.030       .   A
C547       H554 0.020       .   A
C547       H556 0.020       .   A
C548       N549 0.028       .   A
C548       C551 0.031       .   A
C548       H555 0.020       .   A
N549       N550 0.027       .   A
N549       H553 0.019       .   A
N550       H552 0.019       .   A
C551       C558 0.031       .   A
C551       N561 0.021       .   A
C551       H564 0.020       .   A
C558       N559 0.030       .   A
C558       H562 0.020       .   A
C558       H563 0.020       .   A
N559       N560 0.020       .   A
N560       N561 0.025       .   A
C489       C490 0.025       .   A
C489       C494 0.025       .   A
C490       C491 0.025       .   A
C490       H497 0.020       .   A
C491       C492 0.025       .   A
C491       C496 0.028       .   A
C492       C493 0.026       .   A
C492       C495 0.031       .   A
C493       C494 0.026       .   A
C493       C499 0.025       .   A
C494       C498 0.025       .   A
C495       C509 0.030       .   A
C495       N512 0.027       .   A
C495       H519 0.020       .   A
C496       H506 0.020       .   A
C496       H507 0.020       .   A
C496       H508 0.020       .   A
C498       C501 0.025       .   A
C498       H505 0.020       .   A
C499       C500 0.025       .   A
C499       H502 0.020       .   A
C500       C501 0.025       .   A
C500       F503 0.025       .   A
C501       H504 0.020       .   A
C509       C510 0.030       .   A
C509       H516 0.020       .   A
C509       H518 0.020       .   A
C510       N511 0.028       .   A
C510       C513 0.031       .   A
C510       H517 0.020       .   A
N511       N512 0.027       .   A
N511       H515 0.019       .   A
N512       H514 0.019       .   A
C513       C520 0.031       .   A
C513       N523 0.021       .   A
C513       H526 0.020       .   A
C520       N521 0.030       .   A
C520       H524 0.020       .   A
C520       H525 0.020       .   A
N521       N522 0.020       .   A
N522       N523 0.025       .   A
C451       C452 0.025       .   A
C451       C456 0.025       .   A
C452       C453 0.025       .   A
C452       H459 0.020       .   A
C453       C454 0.025       .   A
C453       C458 0.028       .   A
C454       C455 0.026       .   A
C454       C457 0.031       .   A
C455       C456 0.026       .   A
C455       C461 0.025       .   A
C456       C460 0.025       .   A
C457       C471 0.030       .   A
C457       N474 0.027       .   A
C457       H481 0.020       .   A
C458       H468 0.020       .   A
C458       H469 0.020       .   A
C458       H470 0.020       .   A
C460       C463 0.025       .   A
C460       H467 0.020       .   A
C461       C462 0.025       .   A
C461       H464 0.020       .   A
C462       C463 0.025       .   A
C462       F465 0.025       .   A
C463       H466 0.020       .   A
C471       C472 0.030       .   A
C471       H478 0.020       .   A
C471       H480 0.020       .   A
C472       N473 0.028       .   A
C472       C475 0.031       .   A
C472       H479 0.020       .   A
N473       N474 0.027       .   A
N473       H477 0.019       .   A
N474       H476 0.019       .   A
C475       C482 0.031       .   A
C475       N485 0.021       .   A
C475       H488 0.020       .   A
C482       N483 0.030       .   A
C482       H486 0.020       .   A
C482       H487 0.020       .   A
N483       N484 0.020       .   A
N484       N485 0.025       .   A
C413       C414 0.025       .   A
C413       C418 0.025       .   A
C414       C415 0.025       .   A
C414       H421 0.020       .   A
C415       C416 0.025       .   A
C415       C420 0.028       .   A
C416       C417 0.026       .   A
C416       C419 0.031       .   A
C417       C418 0.026       .   A
C417       C423 0.025       .   A
C418       C422 0.025       .   A
C419       C433 0.030       .   A
C419       N436 0.027       .   A
C419       H443 0.020       .   A
C420       H430 0.020       .   A
C420       H431 0.020       .   A
C420       H432 0.020       .   A
C422       C425 0.025       .   A
C422       H429 0.020       .   A
C423       C424 0.025       .   A
C423       H426 0.020       .   A
C424       C425 0.025       .   A
C424       F427 0.025       .   A
C425       H428 0.020       .   A
C433       C434 0.030       .   A
C433       H440 0.020       .   A
C433       H442 0.020       .   A
C434       N435 0.028       .   A
C434       C437 0.031       .   A
C434       H441 0.020       .   A
N435       N436 0.027       .   A
N435       H439 0.019       .   A
N436       H438 0.019       .   A
C437       C444 0.031       .   A
C437       N447 0.021       .   A
C437       H450 0.020       .   A
C444       N445 0.030       .   A
C444       H448 0.020       .   A
C444       H449 0.020       .   A
N445       N446 0.020       .   A
N446       N447 0.025       .   A
C375       C376 0.025       .   A
C375       C380 0.025       .   A
C376       C377 0.025       .   A
C376       H383 0.020       .   A
C377       C378 0.025       .   A
C377       C382 0.028       .   A
C378       C379 0.026       .   A
C378       C381 0.031       .   A
C379       C380 0.026       .   A
C379       C385 0.025       .   A
C380       C384 0.025       .   A
C381       C395 0.030       .   A
C381       N398 0.027       .   A
C381       H405 0.020       .   A
C382       H392 0.020       .   A
C382       H393 0.020       .   A
C382       H394 0.020       .   A
C384       C387 0.025       .   A
C384       H391 0.020       .   A
C385       C386 0.025       .   A
C385       H388 0.020       .   A
C386       C387 0.025       .   A
C386       F389 0.025       .   A
C387       H390 0.020       .   A
C395       C396 0.030       .   A
C395       H402 0.020       .   A
C395       H404 0.020       .   A
C396       N397 0.028       .   A
C396       C399 0.031       .   A
C396       H403 0.020       .   A
N397       N398 0.027       .   A
N397       H401 0.019       .   A
N398       H400 0.019       .   A
C399       C406 0.031       .   A
C399       N409 0.021       .   A
C399       H412 0.020       .   A
C406       N407 0.030       .   A
C406       H410 0.020       .   A
C406       H411 0.020       .   A
N407       N408 0.020       .   A
N408       N409 0.025       .   A
C337       C338 0.025       .   A
C337       C342 0.025       .   A
C338       C339 0.025       .   A
C338       H345 0.020       .   A
C339       C340 0.025       .   A
C339       C344 0.028       .   A
C340       C341 0.026       .   A
C340       C343 0.031       .   A
C341       C342 0.026       .   A
C341       C347 0.025       .   A
C342       C346 0.025       .   A
C343       C357 0.030       .   A
C343       N360 0.027       .   A
C343       H367 0.020       .   A
C344       H354 0.020       .   A
C344       H355 0.020       .   A
C344       H356 0.020       .   A
C346       C349 0.025       .   A
C346       H353 0.020       .   A
C347       C348 0.025       .   A
C347       H350 0.020       .   A
C348       C349 0.025       .   A
C348       F351 0.025       .   A
C349       H352 0.020       .   A
C357       C358 0.030       .   A
C357       H364 0.020       .   A
C357       H366 0.020       .   A
C358       N359 0.028       .   A
C358       C361 0.031       .   A
C358       H365 0.020       .   A
N359       N360 0.027       .   A
N359       H363 0.019       .   A
N360       H362 0.019       .   A
C361       C368 0.031       .   A
C361       N371 0.021       .   A
C361       H374 0.020       .   A
C368       N369 0.030       .   A
C368       H372 0.020       .   A
C368       H373 0.020       .   A
N369       N370 0.020       .   A
N370       N371 0.025       .   A
C299       C300 0.025       .   A
C299       C304 0.025       .   A
C300       C301 0.025       .   A
C300       H307 0.020       .   A
C301       C302 0.025       .   A
C301       C306 0.028       .   A
C302       C303 0.026       .   A
C302       C305 0.031       .   A
C303       C304 0.026       .   A
C303       C309 0.025       .   A
C304       C308 0.025       .   A
C305       C319 0.030       .   A
C305       N322 0.027       .   A
C305       H329 0.020       .   A
C306       H316 0.020       .   A
C306       H317 0.020       .   A
C306       H318 0.020       .   A
C308       C311 0.025       .   A
C308       H315 0.020       .   A
C309       C310 0.025       .   A
C309       H312 0.020       .   A
C310       C311 0.025       .   A
C310       F313 0.025       .   A
C311       H314 0.020       .   A
C319       C320 0.030       .   A
C319       H326 0.020       .   A
C319       H328 0.020       .   A
C320       N321 0.028       .   A
C320       C323 0.031       .   A
C320       H327 0.020       .   A
N321       N322 0.027       .   A
N321       H325 0.019       .   A
N322       H324 0.019       .   A
C323       C330 0.031       .   A
C323       N333 0.021       .   A
C323       H336 0.020       .   A
C330       N331 0.030       .   A
C330       H334 0.020       .   A
C330       H335 0.020       .   A
N331       N332 0.020       .   A
N332       N333 0.025       .   A
C261       C262 0.025       .   A
C261       C266 0.025       .   A
C262       C263 0.025       .   A
C262       H269 0.020       .   A
C263       C264 0.025       .   A
C263       C268 0.028       .   A
C264       C265 0.026       .   A
C264       C267 0.031       .   A
C265       C266 0.026       .   A
C265       C271 0.025       .   A
C266       C270 0.025       .   A
C267       C281 0.030       .   A
C267       N284 0.027       .   A
C267       H291 0.020       .   A
C268       H278 0.020       .   A
C268       H279 0.020       .   A
C268       H280 0.020       .   A
C270       C273 0.025       .   A
C270       H277 0.020       .   A
C271       C272 0.025       .   A
C271       H274 0.020       .   A
C272       C273 0.025       .   A
C272       F275 0.025       .   A
C273       H276 0.020       .   A
C281       C282 0.030       .   A
C281       H288 0.020       .   A
C281       H290 0.020       .   A
C282       N283 0.028       .   A
C282       C285 0.031       .   A
C282       H289 0.020       .   A
N283       N284 0.027       .   A
N283       H287 0.019       .   A
N284       H286 0.019       .   A
C285       C292 0.031       .   A
C285       N295 0.021       .   A
C285       H298 0.020       .   A
C292       N293 0.030       .   A
C292       H296 0.020       .   A
C292       H297 0.020       .   A
N293       N294 0.020       .   A
N294       N295 0.025       .   A
C223       C224 0.025       .   A
C223       C228 0.025       .   A
C224       C225 0.025       .   A
C224       H231 0.020       .   A
C225       C226 0.025       .   A
C225       C230 0.028       .   A
C226       C227 0.026       .   A
C226       C229 0.031       .   A
C227       C228 0.026       .   A
C227       C233 0.025       .   A
C228       C232 0.025       .   A
C229       C243 0.030       .   A
C229       N246 0.027       .   A
C229       H253 0.020       .   A
C230       H240 0.020       .   A
C230       H241 0.020       .   A
C230       H242 0.020       .   A
C232       C235 0.025       .   A
C232       H239 0.020       .   A
C233       C234 0.025       .   A
C233       H236 0.020       .   A
C234       C235 0.025       .   A
C234       F237 0.025       .   A
C235       H238 0.020       .   A
C243       C244 0.030       .   A
C243       H250 0.020       .   A
C243       H252 0.020       .   A
C244       N245 0.028       .   A
C244       C247 0.031       .   A
C244       H251 0.020       .   A
N245       N246 0.027       .   A
N245       H249 0.019       .   A
N246       H248 0.019       .   A
C247       C254 0.031       .   A
C247       N257 0.021       .   A
C247       H260 0.020       .   A
C254       N255 0.030       .   A
C254       H258 0.020       .   A
C254       H259 0.020       .   A
N255       N256 0.020       .   A
N256       N257 0.025       .   A
C185       C186 0.025       .   A
C185       C190 0.025       .   A
C186       C187 0.025       .   A
C186       H193 0.020       .   A
C187       C188 0.025       .   A
C187       C192 0.028       .   A
C188       C189 0.026       .   A
C188       C191 0.031       .   A
C189       C190 0.026       .   A
C189       C195 0.025       .   A
C190       C194 0.025       .   A
C191       C205 0.030       .   A
C191       N208 0.027       .   A
C191       H215 0.020       .   A
C192       H202 0.020       .   A
C192       H203 0.020       .   A
C192       H204 0.020       .   A
C194       C197 0.025       .   A
C194       H201 0.020       .   A
C195       C196 0.025       .   A
C195       H198 0.020       .   A
C196       C197 0.025       .   A
C196       F199 0.025       .   A
C197       H200 0.020       .   A
C205       C206 0.030       .   A
C205       H212 0.020       .   A
C205       H214 0.020       .   A
C206       N207 0.028       .   A
C206       C209 0.031       .   A
C206       H213 0.020       .   A
N207       N208 0.027       .   A
N207       H211 0.019       .   A
N208       H210 0.019       .   A
C209       C216 0.031       .   A
C209       N219 0.021       .   A
C209       H222 0.020       .   A
C216       N217 0.030       .   A
C216       H220 0.020       .   A
C216       H221 0.020       .   A
N217       N218 0.020       .   A
N218       N219 0.025       .   A
