data_pcu_v1-6c_Zn_1_Ch_1-7_fer_tobacco
_audit_creation_date              2021-02-03
_audit_creation_method            'tobacco_3.0'
_symmetry_space_group_name_H-M    'P1'
_symmetry_Int_Tables_number       1
_symmetry_cell_setting            triclinic
loop_
_symmetry_equiv_pos_as_xyz
  x,y,z
_cell_length_a                    41.397564154165636
_cell_length_b                    41.397564154165636
_cell_length_c                    41.397564154165636
_cell_angle_alpha                 90.0
_cell_angle_beta                  90.0
_cell_angle_gamma                 90.0
loop_
_atom_site_label
_atom_site_type_symbol
_atom_site_fract_x
_atom_site_fract_y
_atom_site_fract_z
_atom_site_charge
Zn1       Zn   -0.0270837191   -0.0270837191    0.0270837191          1.4972
Zn2       Zn    0.0270837191    0.0270837191    0.0270837191          1.4936
Zn3       Zn    0.0270837191   -0.0270837191   -0.0270837191          1.4911
Zn4       Zn   -0.0270837191    0.0270837191   -0.0270837191          1.4948
O5         O    0.0000000000    0.0000000000    0.0000000000         -2.2657
O6         O   -0.0199045528   -0.0199045528    0.0723859015          -1.172
O7         O    0.0723859015    0.0199045528    0.0199045528         -1.1702
O8         O    0.0199045528   -0.0723859015   -0.0199045528         -1.1654
O9         O    0.0199045528    0.0199045528    0.0723859015         -1.1722
O10        O   -0.0199045528   -0.0723859015    0.0199045528         -1.1681
O11        O    0.0723859015   -0.0199045528   -0.0199045528          -1.174
O12        O   -0.0199045528    0.0199045528   -0.0723859015         -1.1679
O13        O    0.0199045528    0.0723859015    0.0199045528         -1.1755
O14        O    0.0199045528   -0.0199045528   -0.0723859015         -1.1694
O15        O   -0.0199045528    0.0723859015   -0.0199045528          -1.174
O16        O   -0.0723859015    0.0199045528   -0.0199045528         -1.1731
O17        O   -0.0723859015   -0.0199045528    0.0199045528          -1.171
C18        C   -0.0000000000   -0.0000000000    0.0865461549          0.3469
C19        C    0.0865461549   -0.0000000000   -0.0000000000          0.3518
C20        C   -0.0000000000   -0.0865461549    0.0000000000          0.3414
C21        C    0.0000000000    0.0000000000   -0.0865461549          0.3452
C22        C    0.0000000000    0.0865461549   -0.0000000000          0.3565
C23        C   -0.0865461549    0.0000000000    0.0000000000           0.347
Zn24      Zn    0.9729162809    0.0270837191    0.4729162809          1.4972
Zn25      Zn    1.0270837191   -0.0270837191    0.4729162809          1.4936
Zn26      Zn    1.0270837191    0.0270837191    0.5270837191          1.4911
Zn27      Zn    0.9729162809   -0.0270837191    0.5270837191          1.4948
O28        O    1.0000000000    0.0000000000    0.5000000000         -2.2657
O29        O    0.9800954472    0.0199045528    0.4276140985          -1.172
O30        O    1.0723859015   -0.0199045528    0.4800954472         -1.1702
O31        O    1.0199045528    0.0723859015    0.5199045528         -1.1654
O32        O    1.0199045528   -0.0199045528    0.4276140985         -1.1722
O33        O    0.9800954472    0.0723859015    0.4800954472         -1.1681
O34        O    1.0723859015    0.0199045528    0.5199045528          -1.174
O35        O    0.9800954472   -0.0199045528    0.5723859015         -1.1679
O36        O    1.0199045528   -0.0723859015    0.4800954472         -1.1755
O37        O    1.0199045528    0.0199045528    0.5723859015         -1.1718
O38        O    0.9800954472   -0.0723859015    0.5199045528          -1.174
O39        O    0.9276140985   -0.0199045528    0.5199045528         -1.1731
O40        O    0.9276140985    0.0199045528    0.4800954472          -1.171
C41        C    1.0000000000    0.0000000000    0.4134538451          0.3469
C42        C    1.0865461549    0.0000000000    0.5000000000          0.3518
C43        C    1.0000000000    0.0865461549    0.5000000000          0.3414
C44        C    1.0000000000    0.0000000000    0.5865461549          0.3452
C45        C    1.0000000000   -0.0865461549    0.5000000000          0.3565
C46        C    0.9134538451    0.0000000000    0.5000000000           0.347
Zn47      Zn    0.9729162809    0.4729162809    0.0270837191          1.4972
Zn48      Zn    1.0270837191    0.5270837191    0.0270837191          1.4936
Zn49      Zn    1.0270837191    0.4729162809   -0.0270837191          1.4911
Zn50      Zn    0.9729162809    0.5270837191   -0.0270837191          1.4948
O51        O    1.0000000000    0.5000000000    0.0000000000         -2.2657
O52        O    0.9800954472    0.4800954472    0.0723859015          -1.172
O53        O    1.0723859015    0.5199045528    0.0199045528         -1.1702
O54        O    1.0199045528    0.4276140985   -0.0199045528         -1.1654
O55        O    1.0199045528    0.5199045528    0.0723859015         -1.1722
O56        O    0.9800954472    0.4276140985    0.0199045528         -1.1681
O57        O    1.0723859015    0.4800954472   -0.0199045528          -1.174
O58        O    0.9800954472    0.5199045528   -0.0723859015         -1.1679
O59        O    1.0199045528    0.5723859015    0.0199045528         -1.1755
O60        O    1.0199045528    0.4800954472   -0.0723859015         -1.1694
O61        O    0.9800954472    0.5723859015   -0.0199045528          -1.174
O62        O    0.9276140985    0.5199045528   -0.0199045528         -1.1731
O63        O    0.9276140985    0.4800954472    0.0199045528          -1.171
C64        C    1.0000000000    0.5000000000    0.0865461549          0.3469
C65        C    1.0865461549    0.5000000000    0.0000000000          0.3518
C66        C    1.0000000000    0.4134538451    0.0000000000          0.3414
C67        C    1.0000000000    0.5000000000   -0.0865461549          0.3452
C68        C    1.0000000000    0.5865461549    0.0000000000          0.3565
C69        C    0.9134538451    0.5000000000    0.0000000000           0.347
Zn70      Zn    0.9729162809    0.4729162809    0.5270837191          1.4972
Zn71      Zn    1.0270837191    0.4729162809    0.4729162809          1.4936
Zn72      Zn    0.9729162809    0.5270837191    0.4729162809          1.4911
Zn73      Zn    1.0270837191    0.5270837191    0.5270837191          1.4948
O74        O    1.0000000000    0.5000000000    0.5000000000         -2.2657
O75        O    0.9800954472    0.4276140985    0.5199045528          -1.172
O76        O    1.0199045528    0.4800954472    0.4276140985         -1.1702
O77        O    0.9276140985    0.5199045528    0.4800954472         -1.1654
O78        O    1.0199045528    0.4276140985    0.4800954472         -1.1722
O79        O    0.9276140985    0.4800954472    0.5199045528         -1.1681
O80        O    0.9800954472    0.5199045528    0.4276140985          -1.174
O81        O    1.0199045528    0.5723859015    0.5199045528         -1.1679
O82        O    1.0723859015    0.4800954472    0.4800954472         -1.1755
O83        O    0.9800954472    0.5723859015    0.4800954472         -1.1694
O84        O    1.0723859015    0.5199045528    0.5199045528          -1.174
O85        O    1.0199045528    0.5199045528    0.5723859015         -1.1731
O86        O    0.9800954472    0.4800954472    0.5723859015          -1.171
C87        C    1.0000000000    0.4134538451    0.5000000000          0.3469
C88        C    1.0000000000    0.5000000000    0.4134538451          0.3518
C89        C    0.9134538451    0.5000000000    0.5000000000          0.3414
C90        C    1.0000000000    0.5865461549    0.5000000000          0.3452
C91        C    1.0865461549    0.5000000000    0.5000000000          0.3565
C92        C    1.0000000000    0.5000000000    0.5865461549           0.347
Zn93      Zn    0.4729162809    0.9729162809   -0.0270837191          1.4972
Zn94      Zn    0.4729162809    1.0270837191    0.0270837191          1.4936
Zn95      Zn    0.5270837191    0.9729162809    0.0270837191          1.4911
Zn96      Zn    0.5270837191    1.0270837191   -0.0270837191          1.4948
O97        O    0.5000000000    1.0000000000    0.0000000000         -2.2657
O98        O    0.4276140985    0.9800954472   -0.0199045528          -1.172
O99        O    0.4800954472    1.0199045528    0.0723859015         -1.1702
O100       O    0.5199045528    0.9276140985    0.0199045528         -1.1654
O101       O    0.4276140985    1.0199045528    0.0199045528         -1.1722
O102       O    0.4800954472    0.9276140985   -0.0199045528         -1.1681
O103       O    0.5199045528    0.9800954472    0.0723859015          -1.174
O104       O    0.5723859015    1.0199045528   -0.0199045528         -1.1679
O105       O    0.4800954472    1.0723859015    0.0199045528         -1.1755
O106       O    0.5723859015    0.9800954472    0.0199045528         -1.1694
O107       O    0.5199045528    1.0723859015   -0.0199045528          -1.174
O108       O    0.5199045528    1.0199045528   -0.0723859015         -1.1731
O109       O    0.4800954472    0.9800954472   -0.0723859015          -1.171
C110       C    0.4134538451    1.0000000000    0.0000000000          0.3469
C111       C    0.5000000000    1.0000000000    0.0865461549          0.3518
C112       C    0.5000000000    0.9134538451    0.0000000000          0.3414
C113       C    0.5865461549    1.0000000000    0.0000000000          0.3452
C114       C    0.5000000000    1.0865461549    0.0000000000          0.3565
C115       C    0.5000000000    1.0000000000   -0.0865461549           0.347
Zn116     Zn    0.4729162809    1.0270837191    0.5270837191          1.4972
Zn117     Zn    0.4729162809    0.9729162809    0.4729162809          1.4936
Zn118     Zn    0.5270837191    1.0270837191    0.4729162809          1.4911
Zn119     Zn    0.5270837191    0.9729162809    0.5270837191          1.4948
O120       O    0.5000000000    1.0000000000    0.5000000000         -2.2657
O121       O    0.4276140985    1.0199045528    0.5199045528          -1.172
O122       O    0.4800954472    0.9800954472    0.4276140985         -1.1702
O123       O    0.5199045528    1.0723859015    0.4800954472         -1.1654
O124       O    0.4276140985    0.9800954472    0.4800954472         -1.1722
O125       O    0.4800954472    1.0723859015    0.5199045528         -1.1681
O126       O    0.5199045528    1.0199045528    0.4276140985          -1.174
O127       O    0.5723859015    0.9800954472    0.5199045528         -1.1679
O128       O    0.4800954472    0.9276140985    0.4800954472         -1.1755
O129       O    0.5723859015    1.0199045528    0.4800954472         -1.1694
O130       O    0.5199045528    0.9276140985    0.5199045528          -1.174
O131       O    0.5199045528    0.9800954472    0.5723859015         -1.1731
O132       O    0.4800954472    1.0199045528    0.5723859015          -1.171
C133       C    0.4134538451    1.0000000000    0.5000000000          0.3469
C134       C    0.5000000000    1.0000000000    0.4134538451          0.3518
C135       C    0.5000000000    1.0865461549    0.5000000000          0.3414
C136       C    0.5865461549    1.0000000000    0.5000000000          0.3452
C137       C    0.5000000000    0.9134538451    0.5000000000          0.3565
C138       C    0.5000000000    1.0000000000    0.5865461549           0.347
Zn139     Zn    0.4729162809    0.4729162809   -0.0270837191          1.4972
Zn140     Zn    0.4729162809    0.5270837191    0.0270837191          1.4936
Zn141     Zn    0.5270837191    0.4729162809    0.0270837191          1.4911
Zn142     Zn    0.5270837191    0.5270837191   -0.0270837191          1.4948
O143       O    0.5000000000    0.5000000000    0.0000000000         -2.2657
O144       O    0.4276140985    0.4800954472   -0.0199045528          -1.172
O145       O    0.4800954472    0.5199045528    0.0723859015         -1.1702
O146       O    0.5199045528    0.4276140985    0.0199045528         -1.1654
O147       O    0.4276140985    0.5199045528    0.0199045528         -1.1722
O148       O    0.4800954472    0.4276140985   -0.0199045528         -1.1681
O149       O    0.5199045528    0.4800954472    0.0723859015          -1.174
O150       O    0.5723859015    0.5199045528   -0.0199045528         -1.1679
O151       O    0.4800954472    0.5723859015    0.0199045528         -1.1755
O152       O    0.5723859015    0.4800954472    0.0199045528         -1.1694
O153       O    0.5199045528    0.5723859015   -0.0199045528          -1.174
O154       O    0.5199045528    0.5199045528   -0.0723859015         -1.1731
O155       O    0.4800954472    0.4800954472   -0.0723859015          -1.171
C156       C    0.4134538451    0.5000000000    0.0000000000          0.3469
C157       C    0.5000000000    0.5000000000    0.0865461549          0.3518
C158       C    0.5000000000    0.4134538451    0.0000000000          0.3414
C159       C    0.5865461549    0.5000000000    0.0000000000          0.3452
C160       C    0.5000000000    0.5865461549    0.0000000000          0.3565
C161       C    0.5000000000    0.5000000000   -0.0865461549           0.347
Zn162     Zn    0.4729162809    0.5270837191    0.4729162809          1.4972
Zn163     Zn    0.4729162809    0.4729162809    0.5270837191          1.4936
Zn164     Zn    0.5270837191    0.4729162809    0.4729162809          1.4911
Zn165     Zn    0.5270837191    0.5270837191    0.5270837191          1.4948
O166       O    0.5000000000    0.5000000000    0.5000000000         -2.2657
O167       O    0.4276140985    0.5199045528    0.4800954472          -1.172
O168       O    0.4800954472    0.4276140985    0.5199045528         -1.1702
O169       O    0.5199045528    0.4800954472    0.4276140985         -1.1654
O170       O    0.4276140985    0.4800954472    0.5199045528         -1.1722
O171       O    0.4800954472    0.5199045528    0.4276140985         -1.1681
O172       O    0.5199045528    0.4276140985    0.4800954472          -1.174
O173       O    0.5723859015    0.5199045528    0.5199045528         -1.1679
O174       O    0.4800954472    0.4800954472    0.5723859015         -1.1755
O175       O    0.5723859015    0.4800954472    0.4800954472         -1.1694
O176       O    0.5199045528    0.5199045528    0.5723859015          -1.174
O177       O    0.5199045528    0.5723859015    0.5199045528         -1.1731
O178       O    0.4800954472    0.5723859015    0.4800954472          -1.171
C179       C    0.4134538451    0.5000000000    0.5000000000          0.3469
C180       C    0.5000000000    0.4134538451    0.5000000000          0.3518
C181       C    0.5000000000    0.5000000000    0.4134538451          0.3414
C182       C    0.5865461549    0.5000000000    0.5000000000          0.3452
C183       C    0.5000000000    0.5000000000    0.5865461549          0.3565
C184       C    0.5000000000    0.5865461549    0.5000000000           0.347
C898       C    0.5000000000    0.5000000000   -0.1237464113          -0.424
C899       C    0.5037737699    0.4727447729   -0.1402368867          0.5719
C900       C    0.5008078949    0.4725720943   -0.1721855615         -0.4264
C901       C    0.4938033931    0.4992285487   -0.1896156029         -0.4204
C902       C    0.4896247790    0.5267718231   -0.1722834471         -0.4159
C903       C    0.4926416465    0.5268400903   -0.1402496870         -0.4176
C904       C    0.4933200544    0.4970787005   -0.2223448165         -0.4211
H905       H    0.5066156863    0.4496252514   -0.1833542901          0.5678
H906       H    0.5101113742    0.4503547454   -0.1280469493          0.5664
H907       H    0.4885012244    0.5495874599   -0.1277753297         -0.4133
Br908     Br    0.4743007990    0.5670096095   -0.1882204680          -0.402
C909       C    0.4851121612    0.4695303804   -0.2379688881         -0.4139
C910       C    0.4883837079    0.4671106188   -0.2697892025         -0.4181
C911       C    0.4994895195    0.4914467056   -0.2876470930           0.571
C912       C    0.5062170851    0.5191513707   -0.2728773168          0.5652
C913       C    0.5031895109    0.5218553609   -0.2409904614          0.5691
C914       C    0.5075590440    0.4874967644   -0.3231299753          0.5622
H915       H    0.4823109334    0.4440422809   -0.2806379492         -0.4128
F916       F    0.4719420381    0.4435159111   -0.2236612883         -0.4011
H917       H    0.5121113910    0.5442286426   -0.2308910044          0.5611
H918       H    0.5157736142    0.5394343789   -0.2866564363          0.5558
O919       O    0.4915809594    0.5103287132   -0.3439369208         -0.4235
C920       C    0.4993200254    0.4625606351   -0.3745100602          0.5681
C921       C    0.4986753439    0.4550115347   -0.3385748080            0.57
H922       H    0.5156144051    0.4358620048   -0.3321018961          0.5543
H923       H    0.5207444178    0.4524105812   -0.3860398240          0.5477
H924       H    0.4777322514    0.4521527339   -0.3856570624          -0.412
H925       H    0.4741266549    0.4478516090   -0.3320359735         -0.4068
H926       H    0.5247054057    0.5080516455   -0.3811396130          0.5442
C927       C    0.5000000000    0.5000000000   -0.3762535887          0.5675
H928       H    0.5335914481    0.4912302018   -0.3259580779          0.5377
C867       C    0.5000000000    0.5000000000    0.1237464113          -0.424
C868       C    0.4727616685    0.5038938469    0.1402368867          0.5719
C869       C    0.4725759210    0.5009287616    0.1721855615         -0.4264
C870       C    0.4992012478    0.4938068530    0.1896156029         -0.4204
C871       C    0.5267258396    0.4895068964    0.1722834471         -0.4159
C872       C    0.5268074015    0.4925234339    0.1402496870         -0.4176
C873       C    0.4970492904    0.4933329934    0.2223448165         -0.4211
H874       H    0.4496548959    0.5068376233    0.1833542901          0.5678
H875       H    0.4503997883    0.5103300624    0.1280469493          0.5664
H876       H    0.5495363033    0.4882828044    0.1277753297         -0.4133
Br877     Br    0.5668957025    0.4740057376    0.1882204680          -0.402
C878       C    0.4694650657    0.4852465852    0.2379688881         -0.4139
C879       C    0.4670597452    0.4885287641    0.2697892025         -0.4181
C880       C    0.4914445390    0.4995272187    0.2876470930           0.571
C881       C    0.5191785833    0.5061326248    0.2728773168          0.5652
C882       C    0.5218692048    0.5030931635    0.2409904614          0.5691
C883       C    0.4875301985    0.5076140723    0.3231299753          0.5622
H884       H    0.4439648687    0.4825577106    0.2806379492         -0.4128
F885       F    0.4433928083    0.4721912356    0.2236612883         -0.4011
H886       H    0.5442815879    0.5119163580    0.2308910044          0.5611
H887       H    0.5395035102    0.5155996739    0.2866564363          0.5558
O888       O    0.5102915102    0.4915355226    0.3439369208         -0.4235
C889       C    0.4625580020    0.4994850271    0.3745100602          0.5681
C890       C    0.4550061339    0.4988736207    0.3385748080            0.57
H891       H    0.4359314402    0.5158969092    0.3321018961          0.5543
H892       H    0.4525024639    0.5209539426    0.3860398240          0.5477
H893       H    0.4520550647    0.4779433302    0.3856570624          -0.412
H894       H    0.4477380917    0.4743567238    0.3320359735         -0.4068
H895       H    0.5081604439    0.5246696822    0.3811396130          0.5442
C896       C    0.5000000000    0.5000000000    0.3762535887          0.5675
H897       H    0.4913783242    0.5336297703    0.3259580779          0.5377
C836       C    0.5000000000    0.8762535887    0.5000000000          -0.424
C837       C    0.4948087951    0.8597631133    0.4729788946          0.5719
C838       C    0.4977616145    0.8278144385    0.4726516484         -0.4264
C839       C    0.5061478948    0.8103843971    0.4989061701         -0.4204
C840       C    0.5117584267    0.8277165529    0.5261937994         -0.4159
C841       C    0.5087492345    0.8597503130    0.5264194381         -0.4176
C842       C    0.5065183639    0.7776551835    0.4967340246         -0.4211
H843       H    0.4907640355    0.8166457099    0.4500392197          0.5678
H844       H    0.4873111882    0.8719530507    0.4509501759          0.5664
H845       H    0.5140713055    0.8722246703    0.5489196932         -0.4133
Br846     Br    0.5291617189    0.8117795320    0.5655769079          -0.402
C847       C    0.5132771924    0.7620311119    0.4687948461         -0.4139
C848       C    0.5098838062    0.7302107975    0.4665491403         -0.4181
C849       C    0.5000633479    0.7123529070    0.4914317200           0.571
C850       C    0.4947909896    0.7271226832    0.5194497649          0.5652
C851       C    0.4979555710    0.7590095386    0.5219920460          0.5691
C852       C    0.4917986566    0.6768700247    0.4879083494          0.5622
H853       H    0.5147442576    0.7193620508    0.4431952795         -0.4128
F854       F    0.5250715457    0.7763387117    0.4421284256         -0.4011
H855       H    0.4902136193    0.7691089956    0.5448005063          0.5611
H856       H    0.4863061527    0.7133435637    0.5402039263          0.5558
O857       O    0.5089466691    0.6560630792    0.5098752049         -0.4235
C858       C    0.4987249106    0.6254899398    0.4625761766          0.5681
C859       C    0.4989746902    0.6614251920    0.4550037173            0.57
H860       H    0.4810592139    0.6678981039    0.4367644191          0.5543
H861       H    0.4767999421    0.6139601760    0.4535581982          0.5477
H862       H    0.5197400214    0.6143429376    0.4510556943          -0.412
H863       H    0.5231162072    0.6679640265    0.4465722391         -0.4068
H864       H    0.4757485230    0.6188603870    0.5093301623          0.5442
C865       C    0.5000000000    0.6237464113    0.5000000000          0.5675
H866       H    0.4659966024    0.6740419221    0.4929954518          0.5377
C805       C    0.5000000000    1.1237464113    0.5000000000          -0.424
C806       C    0.5274532796    1.1402368867    0.4981544149          0.5719
C807       C    0.5270194370    1.1721855615    0.4952153652         -0.4264
C808       C    0.4994956708    1.1896156029    0.4937759558         -0.4204
C809       C    0.4716780599    1.1722834471    0.4952837053         -0.4159
C810       C    0.4722244997    1.1402496870    0.4982514577         -0.4176
C811       C    0.5015023745    1.2223448165    0.4928656791         -0.4211
H812       H    0.5506677769    1.1833542901    0.4962371574          0.5678
H813       H    0.5506641331    1.1280469493    0.4998081492          0.5664
H814       H    0.4491104180    1.1277753297    0.4988216700         -0.4133
Br815     Br    0.4291653244    1.1882204680    0.4884594009          -0.402
C816       C    0.5268069441    1.2379688881    0.4792290296         -0.4139
C817       C    0.5298412344    1.2697892025    0.4819403664         -0.4181
C818       C    0.5082709270    1.2876470930    0.4977614286           0.571
C819       C    0.4825123497    1.2728773168    0.5099804426          0.5652
C820       C    0.4792493614    1.2409904614    0.5075657634          0.5691
C821       C    0.5137787996    1.3231299753    0.5048594989          0.5622
H822       H    0.5511934008    1.2806379492    0.4713049635         -0.4128
F823       F    0.5496009470    1.2236612883    0.4610455704         -0.4011
H824       H    0.4591569165    1.2308910044    0.5208494878          0.5611
H825       H    0.4645955470    1.2866564363    0.5234606447          0.5558
O826       O    0.4881754946    1.3439369208    0.4938564154         -0.4235
C827       C    0.5365193942    1.3745100602    0.4917233911          0.5681
C828       C    0.5437798140    1.3385748080    0.4895575576            0.57
H829       H    0.5659729414    1.3321018961    0.5022501299          0.5543
H830       H    0.5508127537    1.3860398240    0.5106370913          0.5477
H831       H    0.5423215221    1.3856570624    0.4684706126          -0.412
H832       H    0.5457998776    1.3320359735    0.4640659510         -0.4068
H833       H    0.4971386940    1.3811396130    0.5258263236          0.5442
C834       C    0.5000000000    1.3762535887    0.5000000000          0.5675
H835       H    0.5154152944    1.3259580779    0.5311072892          0.5377
C774       C    0.5000000000    0.8762535887    0.0000000000          -0.424
C775       C    0.5230253544    0.8597631133    0.0150639238          0.5719
C776       C    0.5212067258    0.8278144385    0.0174131412         -0.4264
C777       C    0.4965099133    0.8103843971    0.0051780662         -0.4204
C778       C    0.4730014088    0.8277165529   -0.0097699436         -0.4159
C779       C    0.4749322513    0.8597503130   -0.0120889946         -0.4176
C780       C    0.4978129365    0.7776551835    0.0069550282         -0.4211
H781       H    0.5423208083    0.8166457099    0.0281128402          0.5678
H782       H    0.5440678209    0.8719530507    0.0249983671          0.5664
H783       H    0.4550641214    0.8722246703   -0.0239145319         -0.4133
Br784     Br    0.4326001201    0.8117795320   -0.0246575115          -0.402
C785       C    0.5131863972    0.7620311119    0.0312436296         -0.4139
C786       C    0.5171601245    0.7302107975    0.0303674129         -0.4181
C787       C    0.5061122758    0.7123529070    0.0060049580           0.571
C788       C    0.4896482740    0.7271226832   -0.0172704636          0.5652
C789       C    0.4856205956    0.7590095386   -0.0167649189          0.5691
C790       C    0.5143921176    0.6768700247    0.0025173395          0.5622
H791       H    0.5305593865    0.7193620508    0.0501028272         -0.4128
F792       F    0.5241430503    0.7763387117    0.0582650380         -0.4011
H793       H    0.4746173574    0.7691089956   -0.0381913612          0.5611
H794       H    0.4806377502    0.7133435637   -0.0378018575          0.5558
O795       O    0.4866820137    0.6560630792   -0.0004402300         -0.4235
C796       C    0.5277759882    0.6254899398    0.0251130024          0.5681
C797       C    0.5330430961    0.6614251920    0.0305592951            0.57
H798       H    0.5586087278    0.6678981039    0.0303728349          0.5543
H799       H    0.5495047701    0.6139601760    0.0156320626          0.5477
H800       H    0.5214369817    0.6143429376    0.0482251938          -0.412
H801       H    0.5223101409    0.6679640265    0.0537693434         -0.4068
H802       H    0.5101637278    0.6188603870   -0.0239141109          0.5442
C803       C    0.5000000000    0.6237464113    0.0000000000          0.5675
H804       H    0.5286829603    0.6740419221   -0.0195597171          0.5377
C743       C    0.5000000000    1.3762535887    0.0000000000          -0.424
C744       C    0.5268906488    1.3597631133   -0.0058293869          0.5719
C745       C    0.5272877017    1.3278144385   -0.0028851414         -0.4264
C746       C    0.5012390548    1.3103843971    0.0061202792         -0.4204
C747       C    0.4740918829    1.3277165529    0.0123751846         -0.4159
C748       C    0.4737950746    1.3597503130    0.0093721769         -0.4176
C749       C    0.5034193613    1.2776551835    0.0064392260         -0.4211
H750       H    0.5497281491    1.3166457099   -0.0104160351          0.5678
H751       H    0.5487357133    1.3719530507   -0.0138463510          0.5664
H752       H    0.4514271071    1.3722246703    0.0152253768         -0.4133
Br753     Br    0.4351317765    1.3117795320    0.0307058669          -0.402
C754       C    0.5315107040    1.2620311119    0.0125347916         -0.4139
C755       C    0.5336754532    1.2302107975    0.0090891965         -0.4181
C756       C    0.5085673786    1.2123529070   -0.0001394959           0.571
C757       C    0.4804323788    1.2271226832   -0.0047471409          0.5652
C758       C    0.4779657213    1.2590095386   -0.0015232661          0.5691
C759       C    0.5118941223    1.1768700247   -0.0084852757          0.5622
H760       H    0.5571378252    1.2193620508    0.0133954594         -0.4128
F761       F    0.5584488451    1.2763387117    0.0236945993         -0.4011
H762       H    0.4549803868    1.2691089956   -0.0087231324          0.5611
H763       H    0.4594831822    1.2133435637   -0.0127383131          0.5558
O764       O    0.4903393455    1.1560630792    0.0091779254         -0.4235
C765       C    0.5373831531    1.1254899398   -0.0021606192          0.5681
C766       C    0.5449594032    1.1614251920   -0.0020901629            0.57
H767       H    0.5627695000    1.1678981039   -0.0204323750          0.5543
H768       H    0.5458796024    1.1139601760   -0.0242929153          0.5477
H769       H    0.5493978714    1.1143429376    0.0185758930          -0.412
H770       H    0.5539599906    1.1679640265    0.0218450015         -0.4068
H771       H    0.4900983775    1.1188603870   -0.0240238202          0.5442
C772       C    0.5000000000    1.1237464113    0.0000000000          0.5675
H773       H    0.5061976657    1.1740419221   -0.0341596792          0.5377
C712       C    0.5000000000    1.0000000000   -0.1237464113          -0.424
C713       C    0.4962262301    1.0272552271   -0.1402368867          0.5719
C714       C    0.4991921051    1.0274279057   -0.1721855615         -0.4264
C715       C    0.5061966069    1.0007714513   -0.1896156029         -0.4204
C716       C    0.5103752210    0.9732281769   -0.1722834471         -0.4159
C717       C    0.5073583535    0.9731599097   -0.1402496870         -0.4176
C718       C    0.5066799456    1.0029212995   -0.2223448165         -0.4211
H719       H    0.4933843137    1.0503747486   -0.1833542901          0.5678
H720       H    0.4898886258    1.0496452546   -0.1280469493          0.5664
H721       H    0.5114987756    0.9504125401   -0.1277753297         -0.4133
Br722     Br    0.5256992010    0.9329903905   -0.1882204680          -0.402
C723       C    0.5148878388    1.0304696196   -0.2379688881         -0.4139
C724       C    0.5116162921    1.0328893812   -0.2697892025         -0.4181
C725       C    0.5005104805    1.0085532944   -0.2876470930           0.571
C726       C    0.4937829149    0.9808486293   -0.2728773168          0.5652
C727       C    0.4968104891    0.9781446391   -0.2409904614          0.5691
C728       C    0.4924409560    1.0125032356   -0.3231299753          0.5622
H729       H    0.5176890666    1.0559577191   -0.2806379492         -0.4128
F730       F    0.5280579619    1.0564840889   -0.2236612883         -0.4011
H731       H    0.4878886090    0.9557713574   -0.2308910044          0.5611
H732       H    0.4842263858    0.9605656211   -0.2866564363          0.5558
O733       O    0.5084190406    0.9896712868   -0.3439369208         -0.4235
C734       C    0.5006799746    1.0374393649   -0.3745100602          0.5681
C735       C    0.5013246561    1.0449884653   -0.3385748080            0.57
H736       H    0.4843855949    1.0641379952   -0.3321018961          0.5543
H737       H    0.4792555822    1.0475894188   -0.3860398240          0.5477
H738       H    0.5222677486    1.0478472661   -0.3856570624          -0.412
H739       H    0.5258733451    1.0521483910   -0.3320359735         -0.4068
H740       H    0.4752945943    0.9919483545   -0.3811396130          0.5442
C741       C    0.5000000000    1.0000000000   -0.3762535887          0.5675
H742       H    0.4664085519    1.0087697982   -0.3259580779          0.5377
C681       C    0.5000000000    1.0000000000    0.3762535887          -0.424
C682       C    0.5272383315    1.0038938469    0.3597631133          0.5719
C683       C    0.5274240790    1.0009287616    0.3278144385         -0.4264
C684       C    0.5007987522    0.9938068530    0.3103843971         -0.4204
C685       C    0.4732741604    0.9895068964    0.3277165529         -0.4159
C686       C    0.4731925985    0.9925234339    0.3597503130         -0.4176
C687       C    0.5029507096    0.9933329934    0.2776551835         -0.4211
H688       H    0.5503451041    1.0068376233    0.3166457099          0.5678
H689       H    0.5496002117    1.0103300624    0.3719530507          0.5664
H690       H    0.4504636967    0.9882828044    0.3722246703         -0.4133
Br691     Br    0.4331042975    0.9740057376    0.3117795320          -0.402
C692       C    0.5305349343    0.9852465852    0.2620311119         -0.4139
C693       C    0.5329402548    0.9885287641    0.2302107975         -0.4181
C694       C    0.5085554610    0.9995272187    0.2123529070           0.571
C695       C    0.4808214167    1.0061326248    0.2271226832          0.5652
C696       C    0.4781307952    1.0030931635    0.2590095386          0.5691
C697       C    0.5124698015    1.0076140723    0.1768700247          0.5622
H698       H    0.5560351313    0.9825577106    0.2193620508         -0.4128
F699       F    0.5566071917    0.9721912356    0.2763387117         -0.4011
H700       H    0.4557184121    1.0119163580    0.2691089956          0.5611
H701       H    0.4604964898    1.0155996739    0.2133435637          0.5558
O702       O    0.4897084898    0.9915355226    0.1560630792         -0.4235
C703       C    0.5374419980    0.9994850271    0.1254899398          0.5681
C704       C    0.5449938661    0.9988736207    0.1614251920            0.57
H705       H    0.5640685598    1.0158969092    0.1678981039          0.5543
H706       H    0.5474975361    1.0209539426    0.1139601760          0.5477
H707       H    0.5479449353    0.9779433302    0.1143429376          -0.412
H708       H    0.5522619083    0.9743567238    0.1679640265         -0.4068
H709       H    0.4918395561    1.0246696822    0.1188603870          0.5442
C710       C    0.5000000000    1.0000000000    0.1237464113          0.5675
H711       H    0.5086216758    1.0336297703    0.1740419221          0.5377
C650       C    0.8762535887    0.5000000000    0.5000000000          -0.424
C651       C    0.8597631133    0.4785985176    0.5172935045          0.5719
C652       C    0.8278144385    0.4806432092    0.5194488395         -0.4264
C653       C    0.8103843971    0.5039909722    0.5048026259         -0.4204
C654       C    0.8277165529    0.5258847822    0.4875760806         -0.4159
C655       C    0.8597503130    0.5237314608    0.4854619952         -0.4176
C656       C    0.7776551835    0.5028724032    0.5067011166         -0.4211
H657       H    0.8166457099    0.4607064548    0.5322086931          0.5678
H658       H    0.8719530507    0.4586564031    0.5292847773          0.5664
H659       H    0.8722246703    0.5423158053    0.4717067032         -0.4133
Br660     Br    0.8117795320    0.5645925500    0.4687183892          -0.402
C661       C    0.7620311119    0.4900079307    0.5324068514         -0.4139
C662       C    0.7302107975    0.4859664437    0.5319328817         -0.4181
C663       C    0.7123529070    0.4945196442    0.5065867394           0.571
C664       C    0.7271226832    0.5085706167    0.4817799101          0.5652
C665       C    0.7590095386    0.5126286725    0.4818796686          0.5691
C666       C    0.6768700247    0.4859322285    0.5039456118          0.5622
H667       H    0.7193620508    0.4746103911    0.5529106526         -0.4128
F668       F    0.7763387117    0.4818116787    0.5603894568         -0.4011
H669       H    0.7691089956    0.5214314365    0.4594592533          0.5611
H670       H    0.7133435637    0.5154802898    0.4604495541          0.5558
O671       O    0.6560630792    0.5132069947    0.4982286019         -0.4235
C672       C    0.6254899398    0.4748778544    0.5277677189          0.5681
C673       C    0.6614251920    0.4701824871    0.5337139829            0.57
H674       H    0.6678981039    0.4447266419    0.5360880584          0.5543
H675       H    0.6139601760    0.4523090292    0.5205098744          0.5477
H676       H    0.6143429376    0.4834989741    0.5501291297          -0.412
H677       H    0.6679640265    0.4831852754    0.5557328423         -0.4068
H678       H    0.6188603870    0.4874930893    0.4772236252          0.5442
C679       C    0.6237464113    0.5000000000    0.5000000000          0.5675
H680       H    0.6740419221    0.4695028631    0.4834102626          0.5377
C619       C    1.1237464113    0.5000000000    0.5000000000          -0.424
C620       C    1.1402368867    0.4827064955    0.5214014824          0.5719
C621       C    1.1721855615    0.4805511605    0.5193567908         -0.4264
C622       C    1.1896156029    0.4951973741    0.4960090278         -0.4204
C623       C    1.1722834471    0.5124239194    0.4741152178         -0.4159
C624       C    1.1402496870    0.5145380048    0.4762685392         -0.4176
C625       C    1.2223448165    0.4932988834    0.4971275968         -0.4211
H626       H    1.1833542901    0.4677913069    0.5392935452          0.5678
H627       H    1.1280469493    0.4707152227    0.5413435969          0.5664
H628       H    1.1277753297    0.5282932968    0.4576841947         -0.4133
Br629     Br    1.1882204680    0.5312816108    0.4354074500          -0.402
C630       C    1.2379688881    0.4675931486    0.5099920693         -0.4139
C631       C    1.2697892025    0.4680671183    0.5140335563         -0.4181
C632       C    1.2876470930    0.4934132606    0.5054803558           0.571
C633       C    1.2728773168    0.5182200899    0.4914293833          0.5652
C634       C    1.2409904614    0.5181203314    0.4873713275          0.5691
C635       C    1.3231299753    0.4960543882    0.5140677715          0.5622
H636       H    1.2806379492    0.4470893474    0.5253896089         -0.4128
F637       F    1.2236612883    0.4396105432    0.5181883213         -0.4011
H638       H    1.2308910044    0.5405407467    0.4785685635          0.5611
H639       H    1.2866564363    0.5395504459    0.4845197102          0.5558
O640       O    1.3439369208    0.5017713981    0.4867930053         -0.4235
C641       C    1.3745100602    0.4722322811    0.5251221456          0.5681
C642       C    1.3385748080    0.4662860171    0.5298175129            0.57
H643       H    1.3321018961    0.4639119416    0.5552733581          0.5543
H644       H    1.3860398240    0.4794901256    0.5476909708          0.5477
H645       H    1.3856570624    0.4498708703    0.5165010259          -0.412
H646       H    1.3320359735    0.4442671577    0.5168147246         -0.4068
H647       H    1.3811396130    0.5227763748    0.5125069107          0.5442
C648       C    1.3762535887    0.5000000000    0.5000000000          0.5675
H649       H    1.3259580779    0.5165897374    0.5304971369          0.5377
C588       C    0.6237464113    0.5000000000    0.0000000000          -0.424
C589       C    0.6402368867    0.4739325114    0.0088076547          0.5719
C590       C    0.6721855615    0.4732078483    0.0059264924         -0.4264
C591       C    0.6896156029    0.4980825420   -0.0059427628         -0.4204
C592       C    0.6722834471    0.5243572263   -0.0152020147         -0.4159
C593       C    0.6402496870    0.5249888654   -0.0122512211         -0.4176
C594       C    0.7223448165    0.4958802227   -0.0060152388         -0.4211
H595       H    0.6833542901    0.4517532761    0.0159259610          0.5678
H596       H    0.6280469493    0.4531240669    0.0192233733          0.5664
H597       H    0.6277753297    0.5465595206   -0.0205754480         -0.4133
Br598     Br    0.6882204680    0.5610164020   -0.0377853857          -0.402
C599       C    0.7379688881    0.4672825652   -0.0089227197         -0.4139
C600       C    0.7697892025    0.4655177919   -0.0052561355         -0.4181
C601       C    0.7876470930    0.4915022836    0.0010992054           0.571
C602       C    0.7728773168    0.5199764947    0.0025232529          0.5652
C603       C    0.7409904614    0.5220661324   -0.0009568596          0.5691
C604       C    0.8231299753    0.4891322598    0.0097653608          0.5622
H605       H    0.7806379492    0.4417205367   -0.0069046043         -0.4128
F606       F    0.7236612883    0.4392630265   -0.0169918090         -0.4011
H607       H    0.7308910044    0.5457137937    0.0036204532          0.5611
H608       H    0.7866564363    0.5416895796    0.0081151772          0.5558
O609       O    0.8439369208    0.5085706945   -0.0102032228         -0.4235
C610       C    0.8745100602    0.4630948193    0.0063384579          0.5681
C611       C    0.8385748080    0.4555584417    0.0071179078            0.57
H612       H    0.8321018961    0.4399172067    0.0273413610          0.5543
H613       H    0.8860398240    0.4571334551    0.0292838347          0.5477
H614       H    0.8856570624    0.4488308471   -0.0129201894          -0.412
H615       H    0.8320359735    0.4439309565   -0.0156571719         -0.4068
H616       H    0.8811396130    0.5125327791    0.0227621509          0.5442
C617       C    0.8762535887    0.5000000000    0.0000000000          0.5675
H618       H    0.8259580779    0.4976714549    0.0346391776          0.5377
C557       C    1.1237464113    0.5000000000    0.0000000000          -0.424
C558       C    1.1402368867    0.5023841731   -0.0274117577          0.5719
C559       C    1.1721855615    0.5053141395   -0.0269203014         -0.4264
C560       C    1.1896156029    0.5062129441    0.0006264182         -0.4204
C561       C    1.1722834471    0.5041593891    0.0284090691         -0.4159
C562       C    1.1402496870    0.5012029360    0.0278044737         -0.4176
C563       C    1.2223448165    0.5071624396   -0.0013620289         -0.4211
H564       H    1.1833542901    0.5047567921   -0.0505841431          0.5678
H565       H    1.1280469493    0.5011864169   -0.0506506032          0.5664
H566       H    1.1277753297    0.5001790740    0.0509029071         -0.4133
Br567     Br    1.1882204680    0.5101477979    0.0710475819          -0.402
C568       C    1.2379688881    0.5212932229   -0.0263940168         -0.4139
C569       C    1.2697892025    0.5186419757   -0.0294809494         -0.4181
C570       C    1.2876470930    0.5024005091   -0.0082253870           0.571
C571       C    1.2728773168    0.4896781754    0.0172883511          0.5652
C572       C    1.2409904614    0.4920283325    0.0205981139          0.5691
C573       C    1.3231299753    0.4954119334   -0.0138715426          0.5622
H574       H    1.2806379492    0.5296944999   -0.0506202141         -0.4128
F575       F    1.2236612883    0.5399206539   -0.0488266620         -0.4011
H576       H    1.2308910044    0.4783527271    0.0404259099          0.5611
H577       H    1.2866564363    0.4758488408    0.0349370670          0.5558
O578       O    1.3439369208    0.5059102702    0.0119428333         -0.4235
C579       C    1.3745100602    0.5089919373   -0.0363498759          0.5681
C580       C    1.3385748080    0.5112998849   -0.0435663783            0.57
H581       H    1.3321018961    0.4990454387   -0.0660044005          0.5543
H582       H    1.3860398240    0.4903624793   -0.0510117814          0.5477
H583       H    1.3856570624    0.5323541381   -0.0416944031          -0.412
H584       H    1.3320359735    0.5368262355   -0.0450856191         -0.4068
H585       H    1.3811396130    0.4741224823    0.0023537501          0.5442
C586       C    1.3762535887    0.5000000000    0.0000000000          0.5675
H587       H    1.3259580779    0.4692013279   -0.0160230004          0.5377
C526       C    1.0000000000    0.5000000000   -0.1237464113          -0.424
C527       C    1.0272383315    0.5038938469   -0.1402368867          0.5719
C528       C    1.0274240790    0.5009287616   -0.1721855615         -0.4264
C529       C    1.0007987522    0.4938068530   -0.1896156029         -0.4204
C530       C    0.9732741604    0.4895068964   -0.1722834471         -0.4159
C531       C    0.9731925985    0.4925234339   -0.1402496870         -0.4176
C532       C    1.0029507096    0.4933329934   -0.2223448165         -0.4211
H533       H    1.0503451041    0.5068376233   -0.1833542901          0.5678
H534       H    1.0496002117    0.5103300624   -0.1280469493          0.5664
H535       H    0.9504636967    0.4882828044   -0.1277753297         -0.4133
Br536     Br    0.9331042975    0.4740057376   -0.1882204680          -0.402
C537       C    1.0305349343    0.4852465852   -0.2379688881         -0.4139
C538       C    1.0329402548    0.4885287641   -0.2697892025         -0.4181
C539       C    1.0085554610    0.4995272187   -0.2876470930           0.571
C540       C    0.9808214167    0.5061326248   -0.2728773168          0.5652
C541       C    0.9781307952    0.5030931635   -0.2409904614          0.5691
C542       C    1.0124698015    0.5076140723   -0.3231299753          0.5622
H543       H    1.0560351313    0.4825577106   -0.2806379492         -0.4128
F544       F    1.0566071917    0.4721912356   -0.2236612883         -0.4011
H545       H    0.9557184121    0.5119163580   -0.2308910044          0.5611
H546       H    0.9604964898    0.5155996739   -0.2866564363          0.5558
O547       O    0.9897084898    0.4915355226   -0.3439369208         -0.4235
C548       C    1.0374419980    0.4994850271   -0.3745100602          0.5681
C549       C    1.0449938661    0.4988736207   -0.3385748080            0.57
H550       H    1.0640685598    0.5158969092   -0.3321018961          0.5543
H551       H    1.0474975361    0.5209539426   -0.3860398240          0.5477
H552       H    1.0479449353    0.4779433302   -0.3856570624          -0.412
H553       H    1.0522619083    0.4743567238   -0.3320359735         -0.4068
H554       H    0.9918395561    0.5246696822   -0.3811396130          0.5442
C555       C    1.0000000000    0.5000000000   -0.3762535887          0.5675
H556       H    1.0086216758    0.5336297703   -0.3259580779          0.5377
C495       C    1.0000000000    0.5000000000    0.1237464113          -0.424
C496       C    1.0272510221    0.4961959838    0.1402368867          0.5719
C497       C    1.0274269922    0.4991616654    0.1721855615         -0.4264
C498       C    1.0007783280    0.5061957469    0.1896156029         -0.4204
C499       C    0.9732397081    0.5104049267    0.1722834471         -0.4159
C500       C    0.9731680927    0.5073881368    0.1402496870         -0.4176
C501       C    1.0029287112    0.5066766993    0.2223448165         -0.4211
H502       H    1.0503673753    0.4933284106    0.1833542901          0.5678
H503       H    1.0496340021    0.4898335344    0.1280469493          0.5664
H504       H    0.9504253323    0.5115538020    0.1277753297         -0.4133
Br505     Br    0.9330189535    0.5257735542    0.1882204680          -0.402
C506       C    1.0304861238    0.5148540137    0.2379688881         -0.4139
C507       C    1.0329022530    0.5115797834    0.2697892025         -0.4181
C508       C    1.0085538557    0.5005009876    0.2876470930           0.571
C509       C    0.9808417413    0.4938041734    0.2728773168          0.5652
C510       C    0.9781411128    0.4968347467    0.2409904614          0.5691
C511       C    1.0124948387    0.4924270842    0.3231299753          0.5622
H512       H    1.0559773164    0.5176269523    0.2806379492         -0.4128
F513       F    1.0565151936    0.5279952571    0.2236612883         -0.4011
H514       H    0.9557579431    0.4879377026    0.2308910044          0.5611
H515       H    0.9605481394    0.4842701608    0.2866564363          0.5558
O516       O    0.9896806369    0.5084304985    0.3439369208         -0.4235
C517       C    1.0374400965    0.5006384229    0.3745100602          0.5681
C518       C    1.0449899077    0.5012747259    0.3385748080            0.57
H519       H    1.0641206264    0.4843144225    0.3321018961          0.5543
H520       H    1.0475663667    0.4792027790    0.3860398240          0.5477
H521       H    1.0478719500    0.5222146328    0.3856570624          -0.412
H522       H    1.0521770738    0.5258154534    0.3320359735         -0.4068
H523       H    0.9919209407    0.4753035455    0.3811396130          0.5442
C524       C    1.0000000000    0.5000000000    0.3762535887          0.5675
H525       H    1.0087325121    0.4663988396    0.3259580779          0.5377
C464       C    1.0000000000   -0.3762535887    0.5000000000          -0.424
C465       C    0.9727616685   -0.3597631133    0.4961061531          0.5719
C466       C    0.9725759210   -0.3278144385    0.4990712384         -0.4264
C467       C    0.9992012478   -0.3103843971    0.5061931470         -0.4204
C468       C    1.0267258396   -0.3277165529    0.5104931036         -0.4159
C469       C    1.0268074015   -0.3597503130    0.5074765661         -0.4176
C470       C    0.9970492904   -0.2776551835    0.5066670066         -0.4211
H471       H    0.9496548959   -0.3166457099    0.4931623767          0.5678
H472       H    0.9503997883   -0.3719530507    0.4896699376          0.5664
H473       H    1.0495363033   -0.3722246703    0.5117171956         -0.4133
Br474     Br    1.0668957025   -0.3117795320    0.5259942624          -0.402
C475       C    0.9694650657   -0.2620311119    0.5147534148         -0.4139
C476       C    0.9670597452   -0.2302107975    0.5114712359         -0.4181
C477       C    0.9914445390   -0.2123529070    0.5004727813           0.571
C478       C    1.0191785833   -0.2271226832    0.4938673752          0.5652
C479       C    1.0218692048   -0.2590095386    0.4969068365          0.5691
C480       C    0.9875301985   -0.1768700247    0.4923859277          0.5622
H481       H    0.9439648687   -0.2193620508    0.5174422894         -0.4128
F482       F    0.9433928083   -0.2763387117    0.5278087644         -0.4011
H483       H    1.0442815879   -0.2691089956    0.4880836420          0.5611
H484       H    1.0395035102   -0.2133435637    0.4844003261          0.5558
O485       O    1.0102915102   -0.1560630792    0.5084644774         -0.4235
C486       C    0.9625580020   -0.1254899398    0.5005149729          0.5681
C487       C    0.9550061339   -0.1614251920    0.5011263793            0.57
H488       H    0.9359314402   -0.1678981039    0.4841030908          0.5543
H489       H    0.9525024639   -0.1139601760    0.4790460574          0.5477
H490       H    0.9520550647   -0.1143429376    0.5220566698          -0.412
H491       H    0.9477380917   -0.1679640265    0.5256432762         -0.4068
H492       H    1.0081604439   -0.1188603870    0.4753303178          0.5442
C493       C    1.0000000000   -0.1237464113    0.5000000000          0.5675
H494       H    0.9913783242   -0.1740419221    0.4663702297          0.5377
C433       C    1.0000000000    0.1237464113    0.5000000000          -0.424
C434       C    0.9959108347    0.1402368867    0.5272096944          0.5719
C435       C    0.9988745110    0.1721855615    0.5274167099         -0.4264
C436       C    1.0061872570    0.1896156029    0.5008431638         -0.4204
C437       C    1.0106845753    0.1722834471    0.4733501299         -0.4159
C438       C    1.0076687007    0.1402496870    0.4732469283         -0.4176
C439       C    1.0066456654    0.2223448165    0.5029984654         -0.4211
H440       H    0.9928013569    0.1833542901    0.5502947526          0.5678
H441       H    0.9893143518    0.1280469493    0.5495248232          0.5664
H442       H    1.0120722871    0.1277753297    0.4505490354         -0.4133
Br443     Br    1.0264735298    0.1882204680    0.4332925123          -0.402
C444       C    1.0145339654    0.2379688881    0.5306399954         -0.4139
C445       C    1.0112346142    0.2697892025    0.5330217062         -0.4181
C446       C    1.0004113888    0.2876470930    0.5085586328           0.571
C447       C    0.9940051278    0.2728773168    0.4807779124          0.5652
C448       C    0.9970638144    0.2409904614    0.4781091665          0.5691
C449       C    0.9922966603    0.3231299753    0.5124148542          0.5622
H450       H    1.0170398222    0.2806379492    0.5561588271         -0.4128
F451       F    1.0274019262    0.2236612883    0.5568052460         -0.4011
H452       H    0.9884016424    0.2308910044    0.4556340591          0.5611
H453       H    0.9846841414    0.2866564363    0.4603855882          0.5558
O454       O    1.0085380950    0.3439369208    0.4897694822         -0.4235
C455       C    1.0002463359    0.3745100602    0.5374447290          0.5681
C456       C    1.0008035465    0.3385748080    0.5450007892            0.57
H457       H    0.9836438466    0.3321018961    0.5639528602          0.5543
H458       H    0.9787058305    0.3860398240    0.5473459818          0.5477
H459       H    1.0217121261    0.3856570624    0.5481019447          -0.412
H460       H    1.0252676685    0.3320359735    0.5524445383         -0.4068
H461       H    0.9753894990    0.3811396130    0.4916627760          0.5442
C462       C    1.0000000000    0.3762535887    0.5000000000          0.5675
H463       H    0.9663092398    0.3259580779    0.5083801805          0.5377
C402       C    0.8762535887   -0.0000000000    0.5000000000          -0.424
C403       C    0.8597631133    0.0248487133    0.4881834781          0.5719
C404       C    0.8278144385    0.0233639891    0.4856101871         -0.4264
C405       C    0.8103843971   -0.0027588551    0.4943980545         -0.4204
C406       C    0.8277165529   -0.0280706394    0.5060344783         -0.4159
C407       C    0.8597503130   -0.0264706555    0.5085930329         -0.4176
C408       C    0.7776551835   -0.0012278017    0.4928133341         -0.4211
H409       H    0.8166457099    0.0457295805    0.4778598086          0.5678
H410       H    0.8719530507    0.0470400022    0.4811816742          0.5664
H411       H    0.8722246703   -0.0477537439    0.5176271938         -0.4133
Br412     Br    0.8117795320   -0.0701123034    0.5153297619          -0.402
C413       C    0.7620311119    0.0172848392    0.4708233004         -0.4139
C414       C    0.7302107975    0.0211038392    0.4722281148         -0.4181
C415       C    0.7123529070    0.0068672132    0.4948754689           0.571
C416       C    0.7271226832   -0.0125891564    0.5157143338          0.5652
C417       C    0.7590095386   -0.0165116699    0.5146695104          0.5691
C418       C    0.6768700247    0.0146002311    0.4994492744          0.5622
H419       H    0.7193620508    0.0370454897    0.4544829582         -0.4128
F420       F    0.7763387117    0.0317901780    0.4455290342         -0.4011
H421       H    0.7691089956   -0.0303076062    0.5344137708          0.5611
H422       H    0.7133435637   -0.0242897620    0.5348408468          0.5558
O423       O    0.6560630792   -0.0132554400    0.4986376969         -0.4235
C424       C    0.6254899398    0.0309128877    0.4788679914          0.5681
C425       C    0.6614251920    0.0368672311    0.4741828740            0.57
H426       H    0.6678981039    0.0621734948    0.4778200852          0.5543
H427       H    0.6139601760    0.0511622939    0.4911964027          0.5477
H428       H    0.6143429376    0.0277530872    0.4551114753          -0.412
H429       H    0.6679640265    0.0293669465    0.4497360256         -0.4068
H430       H    0.6188603870    0.0068411926    0.5250675916          0.5442
C431       C    0.6237464113   -0.0000000000    0.5000000000          0.5675
H432       H    0.6740419221    0.0257788145    0.5232539774          0.5377
C371       C    1.1237464113   -0.0000000000    0.5000000000          -0.424
C372       C    1.1402368867    0.0243491595    0.5128143347          0.5719
C373       C    1.1721855615    0.0227613182    0.5153253091         -0.4264
C374       C    1.1896156029   -0.0029837261    0.5054854766         -0.4204
C375       C    1.1722834471   -0.0278028781    0.4928323161         -0.4159
C376       C    1.1402496870   -0.0261004693    0.4903407393         -0.4176
C377       C    1.2223448165   -0.0015181866    0.5071309728         -0.4211
H378       H    1.1833542901    0.0447942659    0.5239761620          0.5678
H379       H    1.1280469493    0.0462383003    0.5207101613          0.5664
H380       H    1.1277753297   -0.0469997514    0.4804510514         -0.4133
Br381     Br    1.1882204680   -0.0694330773    0.4818400312          -0.402
C382       C    1.2379688881    0.0160876099    0.5298535470         -0.4139
C383       C    1.2697892025    0.0199604298    0.5286047353         -0.4181
C384       C    1.2876470930    0.0066537838    0.5053987588           0.571
C385       C    1.2728773168   -0.0119416414    0.4837881418          0.5652
C386       C    1.2409904614   -0.0159032932    0.4846730615          0.5691
C387       C    1.3231299753    0.0145658946    0.5011422620          0.5622
H388       H    1.2806379492    0.0351694654    0.5469816784         -0.4128
F389       F    1.2236612883    0.0295554245    0.5557151542         -0.4011
H390       H    1.2308910044   -0.0288873224    0.4643856599          0.5611
H391       H    1.2866564363   -0.0228571105    0.4642029380          0.5558
O392       O    1.3439369208   -0.0132997761    0.5008237202         -0.4235
C393       C    1.3745100602    0.0300306360    0.5223680423          0.5681
C394       C    1.3385748080    0.0357901174    0.5272907350            0.57
H395       H    1.3321018961    0.0612230470    0.5246825970          0.5543
H396       H    1.3860398240    0.0507632649    0.5108708132          0.5477
H397       H    1.3856570624    0.0259101888    0.5459769031          -0.412
H398       H    1.3320359735    0.0273047648    0.5514133688         -0.4068
H399       H    1.3811396130    0.0078519716    0.4752304097          0.5442
C400       C    1.3762535887   -0.0000000000    0.5000000000          0.5675
H401       H    1.3259580779    0.0267004843    0.4778103880          0.5377
C340       C    0.0000000000   -0.3762535887    0.0000000000          -0.424
C341       C   -0.0014273233   -0.3597631133    0.0274782003          0.5719
C342       C    0.0015424483   -0.3278144385    0.0273964151         -0.4264
C343       C    0.0062398951   -0.3103843971    0.0002382929         -0.4204
C344       C    0.0080459252   -0.3277165529   -0.0275615459         -0.4159
C345       C    0.0050342839   -0.3597503130   -0.0273713683         -0.4176
C346       C    0.0069054521   -0.2776551835    0.0023388874         -0.4211
H347       H   -0.0022801607   -0.3166457099    0.0507561176          0.5678
H348       H   -0.0058254557   -0.3719530507    0.0503284736          0.5664
H349       H    0.0072127129   -0.3722246703   -0.0503896298         -0.4133
Br350     Br    0.0198699865   -0.3117795320   -0.0689631810          -0.402
C351       C    0.0174409151   -0.2620311119    0.0290836714         -0.4139
C352       C    0.0143884636   -0.2302107975    0.0317745457         -0.4181
C353       C    0.0012406294   -0.2123529070    0.0084782236           0.571
C354       C   -0.0078333179   -0.2271226832   -0.0185490236          0.5652
C355       C   -0.0050482692   -0.2590095386   -0.0215022035          0.5691
C356       C   -0.0064612379   -0.1768700247    0.0131042914          0.5622
H357       H    0.0224132286   -0.2193620508    0.0542385157         -0.4128
F358       F    0.0327891290   -0.2763387117    0.0538755469         -0.4011
H359       H   -0.0158522009   -0.2691089956   -0.0430298308          0.5611
H360       H   -0.0190906770   -0.2133435637   -0.0379397311          0.5558
O361       O    0.0075041826   -0.1560630792   -0.0110113489         -0.4235
C362       C    0.0038816755   -0.1254899398    0.0372438049          0.5681
C363       C    0.0051700709   -0.1614251920    0.0447100334            0.57
H364       H   -0.0100679549   -0.1678981039    0.0652390095          0.5543
H365       H   -0.0165954323   -0.1139601760    0.0491901949          0.5477
H366       H    0.0262809896   -0.1143429376    0.0457659599          -0.412
H367       H    0.0302414628   -0.1679640265    0.0497427240         -0.4068
H368       H   -0.0253038502   -0.1188603870   -0.0059077263          0.5442
C369       C   -0.0000000000   -0.1237464113    0.0000000000          0.5675
H370       H   -0.0327176499   -0.1740419221    0.0116124990          0.5377
C309       C   -0.0000000000    0.3762535887    0.0000000000          -0.424
C310       C    0.0271631035    0.3597631133   -0.0043880007          0.5719
C311       C    0.0274026825    0.3278144385   -0.0014267789         -0.4264
C312       C    0.0009111217    0.3103843971    0.0061776154         -0.4204
C313       C   -0.0265308179    0.3277165529    0.0109768588         -0.4159
C314       C   -0.0266671630    0.3597503130    0.0079623007         -0.4176
C315       C    0.0030713318    0.2776551835    0.0066123055         -0.4211
H316       H    0.0502125885    0.3166457099   -0.0077510360          0.5678
H317       H    0.0494043773    0.3719530507   -0.0112293676          0.5664
H318       H   -0.0493152816    0.3722246703    0.0126151109         -0.4133
Br319     Br   -0.0664124671    0.3117795320    0.0272051631          -0.402
C320       C    0.0307978982    0.2620311119    0.0141962999         -0.4139
C321       C    0.0331431995    0.2302107975    0.0108709689         -0.4181
C322       C    0.0085626376    0.2123529070    0.0003172895           0.571
C323       C   -0.0192868206    0.2271226832   -0.0057832255          0.5652
C324       C   -0.0219217849    0.2590095386   -0.0026953894          0.5691
C325       C    0.0123294310    0.1768700247   -0.0078393354          0.5622
H326       H    0.0563427321    0.2193620508    0.0164215085         -0.4128
F327       F    0.0571030097    0.2763387117    0.0267758812         -0.4011
H328       H   -0.0444907471    0.2691089956   -0.0111099972          0.5611
H329       H   -0.0397803669    0.2133435637   -0.0148795013          0.5558
O330       O   -0.0101360511    0.1560630792    0.0086500306         -0.4235
C331       C    0.0374451746    0.1254899398   -0.0001652625          0.5681
C332       C    0.0450069031    0.1614251920    0.0003088601            0.57
H333       H    0.0637692138    0.1678981039   -0.0170581197          0.5543
H334       H    0.0471090612    0.1139601760   -0.0218132987          0.5477
H335       H    0.0483376933    0.1143429376    0.0211820895          -0.412
H336       H    0.0527191062    0.1679640265    0.0246896843         -0.4068
H337       H   -0.0086072330    0.1188603870   -0.0245173735          0.5442
C338       C    0.0000000000    0.1237464113    0.0000000000          0.5675
H339       H    0.0080093536    0.1740419221   -0.0337808378          0.5377
C278       C   -0.1237464113   -0.0000000000    0.0000000000          -0.424
C279       C   -0.1402368867    0.0262015829   -0.0084003451          0.5719
C280       C   -0.1721855615    0.0250729596   -0.0111485158         -0.4264
C281       C   -0.1896156029   -0.0019878589   -0.0059195854         -0.4204
C282       C   -0.1722834471   -0.0286243878    0.0022405681         -0.4159
C283       C   -0.1402496870   -0.0273795690    0.0049894909         -0.4176
C284       C   -0.2223448165   -0.0002593097   -0.0072861802         -0.4211
H285       H   -0.1833542901    0.0482717909   -0.0158498203          0.5678
H286       H   -0.1280469493    0.0491279265   -0.0123829734          0.5664
H287       H   -0.1277753297   -0.0496765991    0.0111073633         -0.4133
Br288     Br   -0.1882204680   -0.0715297003    0.0058513814          -0.402
C289       C   -0.2379688881    0.0210182030   -0.0266135418         -0.4139
C290       C   -0.2697892025    0.0246159764   -0.0247124128         -0.4181
C291       C   -0.2876470930    0.0074887724   -0.0041638592           0.571
C292       C   -0.2728773168   -0.0145706740    0.0138968560          0.5652
C293       C   -0.2409904614   -0.0183190028    0.0123387161          0.5691
C294       C   -0.3231299753    0.0145434326    0.0013995061          0.5622
H295       H   -0.2806379492    0.0427798383   -0.0401753013         -0.4128
F296       F   -0.2236612883    0.0387643960   -0.0497496043         -0.4011
H297       H   -0.2308910044   -0.0346226406    0.0300687773          0.5611
H298       H   -0.2866564363   -0.0287153552    0.0312938576          0.5558
O299       O   -0.3439369208   -0.0129557415   -0.0031162994         -0.4235
C300       C   -0.3745100602    0.0334528755   -0.0168247892          0.5681
C301       C   -0.3385748080    0.0399783703   -0.0206747824            0.57
H302       H   -0.3321018961    0.0645743828   -0.0136982174          0.5543
H303       H   -0.3860398240    0.0518791103   -0.0019082866          0.5477
H304       H   -0.3856570624    0.0334865446   -0.0407904993          -0.412
H305       H   -0.3320359735    0.0358022345   -0.0459029920         -0.4068
H306       H   -0.3811396130    0.0034402131    0.0257556013          0.5442
C307       C   -0.3762535887   -0.0000000000    0.0000000000          0.5675
H308       H   -0.3259580779    0.0224506300    0.0264813889          0.5377
C247       C    0.1237464113   -0.0000000000    0.0000000000          -0.424
C248       C    0.1402368867    0.0032199025   -0.0273261957          0.5719
C249       C    0.1721855615    0.0061334998   -0.0267455209         -0.4264
C250       C    0.1896156029    0.0061909246    0.0008157982         -0.4204
C251       C    0.1722834471    0.0032901634    0.0285228075         -0.4159
C252       C    0.1402496870    0.0003535457    0.0278282378         -0.4176
C253       C    0.2223448165    0.0072006819   -0.0011427353         -0.4211
H254       H    0.1833542901    0.0062988343   -0.0504153478          0.5678
H255       H    0.1280469493    0.0027321523   -0.0505907752          0.5664
H256       H    0.1277753297   -0.0013750003    0.0508846479         -0.4133
Br257     Br    0.1882204680    0.0079740899    0.0713242636          -0.402
C258       C    0.2379688881    0.0220890685   -0.0257316637         -0.4139
C259       C    0.2697892025    0.0195332966   -0.0288980962         -0.4181
C260       C    0.2876470930    0.0026504992   -0.0081482691           0.571
C261       C    0.2728773168   -0.0108448015    0.0169651828          0.5652
C262       C    0.2409904614   -0.0085967819    0.0203451498          0.5691
C263       C    0.3231299753   -0.0041624503   -0.0140051439          0.5622
H264       H    0.2806379492    0.0312260197   -0.0496900905         -0.4128
F265       F    0.2236612883    0.0413926528   -0.0475851849         -0.4011
H266       H    0.2308910044   -0.0228713265    0.0397462078          0.5611
H267       H    0.2866564363   -0.0252064795    0.0341834834          0.5558
O268       O    0.3439369208    0.0055429183    0.0121176985         -0.4235
C269       C    0.3745100602    0.0100974543   -0.0360584224          0.5681
C270       C    0.3385748080    0.0126246353   -0.0432011030            0.57
H271       H    0.3321018961    0.0010609008   -0.0660027770          0.5543
H272       H    0.3860398240   -0.0080757140   -0.0512822239          0.5477
H273       H    0.3856570624    0.0336119264   -0.0406872450          -0.412
H274       H    0.3320359735    0.0381854682   -0.0439403538         -0.4068
H275       H    0.3811396130   -0.0259373127    0.0015626505          0.5442
C276       C    0.3762535887   -0.0000000000    0.0000000000          0.5675
H277       H    0.3259580779   -0.0302951581   -0.0169557701          0.5377
C216       C   -0.0000000000    0.0000000000   -0.3762535887          -0.424
C217       C   -0.0271719717    0.0043327472   -0.3597631133          0.5719
C218       C   -0.0274055276    0.0013710443   -0.3278144385         -0.4264
C219       C   -0.0008985557   -0.0061794557   -0.3103843971         -0.4204
C220       C    0.0265530877   -0.0109228776   -0.3277165529         -0.4159
C221       C    0.0266833016   -0.0079080485   -0.3597503130         -0.4176
C222       C   -0.0030578773   -0.0066185383   -0.2776551835         -0.4211
H223       H   -0.0502282487    0.0076488975   -0.3166457099          0.5678
H224       H   -0.0494271134    0.0111288656   -0.3719530507          0.5664
H225       H    0.0493408362   -0.0125147873   -0.3722246703         -0.4133
Br226     Br    0.0664676597   -0.0270700370   -0.3117795320          -0.402
C227       C   -0.0307689620   -0.0142589074   -0.2620311119         -0.4139
C228       C   -0.0331210216   -0.0109383531   -0.2302107975         -0.4181
C229       C   -0.0085619746   -0.0003347036   -0.2123529070           0.571
C230       C    0.0192750188    0.0058224391   -0.2271226832          0.5652
C231       C    0.0219162577    0.0027399684   -0.2590095386          0.5691
C232       C   -0.0123453491    0.0078142436   -0.1768700247          0.5622
H233       H   -0.0563092174   -0.0165360646   -0.2193620508         -0.4128
F234       F   -0.0570484347   -0.0268919621   -0.2763387117         -0.4011
H235       H    0.0444680595    0.0112004596   -0.2691089956          0.5611
H236       H    0.0397500226    0.0149603759   -0.2133435637          0.5558
O237       O    0.0101536226   -0.0086293980   -0.1560630792         -0.4235
C238       C   -0.0374454332    0.0000891060   -0.1254899398          0.5681
C239       C   -0.0450061818   -0.0004003946   -0.1614251920            0.57
H240       H   -0.0638037747    0.0169283905   -0.1678981039          0.5543
H241       H   -0.0471533277    0.0217174431   -0.1139601760          0.5477
H242       H   -0.0482945131   -0.0212803550   -0.1143429376          -0.412
H243       H   -0.0526687832   -0.0247968535   -0.1679640265         -0.4068
H244       H    0.0085573517    0.0245348282   -0.1188603870          0.5442
C245       C    0.0000000000    0.0000000000   -0.1237464113          0.5675
H246       H   -0.0080780405    0.0337644785   -0.1740419221          0.5377
C185       C   -0.0000000000    0.0000000000    0.3762535887          -0.424
C186       C   -0.0257935146   -0.0095803628    0.3597631133          0.5719
C187       C   -0.0266036932   -0.0067220690    0.3278144385         -0.4264
C188       C   -0.0020936571    0.0058829988    0.3103843971         -0.4204
C189       C    0.0238935070    0.0159209312    0.3277165529         -0.4159
C190       C    0.0246127774    0.0129902656    0.3597503130         -0.4176
C191       C   -0.0042971581    0.0058898299    0.2776551835         -0.4211
H192       H   -0.0477508319   -0.0173562859    0.3166457099          0.5678
H193       H   -0.0462824111   -0.0206113952    0.3719530507          0.5664
H194       H    0.0459258573    0.0219534429    0.3722246703         -0.4133
Br195     Br    0.0598635928    0.0395864490    0.3117795320          -0.402
C196       C   -0.0329687424    0.0079440221    0.2620311119         -0.4139
C197       C   -0.0346234954    0.0042264884    0.2302107975         -0.4181
C198       C   -0.0084611961   -0.0013518863    0.2123529070           0.571
C199       C    0.0200428014   -0.0019269815    0.2271226832          0.5652
C200       C    0.0220278300    0.0016138419    0.2590095386          0.5691
C201       C   -0.0105719807   -0.0100848040    0.1768700247          0.5622
H202       H   -0.0584592991    0.0051652437    0.2193620508         -0.4128
F203       F   -0.0612162424    0.0151747552    0.2763387117         -0.4011
H204       H    0.0458013641   -0.0022569142    0.2691089956          0.5611
H205       H    0.0419128458   -0.0068695347    0.2133435637          0.5558
O206       O    0.0082629097    0.0104540368    0.1560630792         -0.4235
C207       C   -0.0366999596   -0.0074351448    0.1254899398          0.5681
C208       C   -0.0442097700   -0.0084387769    0.1614251920            0.57
H209       H   -0.0592415530   -0.0291192457    0.1678981039          0.5543
H210       H   -0.0419750756   -0.0305479406    0.1139601760          0.5477
H211       H   -0.0515313648    0.0113899930    0.1143429376          -0.412
H212       H   -0.0565106222    0.0139797802    0.1679640265         -0.4068
H213       H    0.0132053590   -0.0223786630    0.1188603870          0.5442
C214       C   -0.0000000000   -0.0000000000    0.1237464113          0.5675
H215       H   -0.0012955210   -0.0346931747    0.1740419221          0.5377
loop_
_geom_bond_atom_site_label_1
_geom_bond_atom_site_label_2
_geom_bond_distance
_geom_bond_site_symmetry_2
_ccdc_geom_bond_type
Zn1          O5 1.942       .   S
Zn1          O6 1.922       .   S
Zn1         O10 1.922       .   S
Zn1         O17 1.922       .   S
Zn2          O5 1.942       .   S
Zn2          O7 1.922       .   S
Zn2          O9 1.922       .   S
Zn2         O13 1.922       .   S
Zn3          O5 1.942       .   S
Zn3          O8 1.922       .   S
Zn3         O11 1.922       .   S
Zn3         O14 1.922       .   S
Zn4          O5 1.942       .   S
Zn4         O12 1.922       .   S
Zn4         O15 1.922       .   S
Zn4         O16 1.922       .   S
O6          C18 1.304       .   A
O7          C19 1.304       .   A
O8          C20 1.304       .   A
O9          C18 1.304       .   A
O10         C20 1.304       .   A
O11         C19 1.304       .   A
O12         C21 1.304       .   A
O13         C22 1.304       .   A
O14         C21 1.304       .   A
O15         C22 1.304       .   A
O16         C23 1.304       .   A
O17         C23 1.304       .   A
C18        C214 1.540       .   S
C19        C247 1.540       .   S
C20        C369 1.540       .   S
C21        C245 1.540       .   S
C22        C338 1.540       .   S
C23        C278 1.540       .   S
Zn24        O28 1.942       .   S
Zn24        O29 1.922       .   S
Zn24        O33 1.922       .   S
Zn24        O40 1.922       .   S
Zn25        O28 1.942       .   S
Zn25        O30 1.922       .   S
Zn25        O32 1.922       .   S
Zn25        O36 1.922       .   S
Zn26        O28 1.942       .   S
Zn26        O31 1.922       .   S
Zn26        O34 1.922       .   S
Zn26        O37 1.922       .   S
Zn27        O28 1.942       .   S
Zn27        O35 1.922       .   S
Zn27        O38 1.922       .   S
Zn27        O39 1.922       .   S
O29         C41 1.304       .   A
O30         C42 1.304       .   A
O31         C43 1.304       .   A
O32         C41 1.304       .   A
O33         C43 1.304       .   A
O34         C42 1.304       .   A
O35         C44 1.304       .   A
O36         C45 1.304       .   A
O37         C44 1.304       .   A
O38         C45 1.304       .   A
O39         C46 1.304       .   A
O40         C46 1.304       .   A
C41        C185 1.540   1_655   S
C42        C371 1.540       .   S
C43        C433 1.540       .   S
C44        C216 1.540   1_656   S
C45        C493 1.540       .   S
C46        C402 1.540       .   S
Zn47        O51 1.942       .   S
Zn47        O52 1.922       .   S
Zn47        O56 1.922       .   S
Zn47        O63 1.922       .   S
Zn48        O51 1.942       .   S
Zn48        O53 1.922       .   S
Zn48        O55 1.922       .   S
Zn48        O59 1.922       .   S
Zn49        O51 1.942       .   S
Zn49        O54 1.922       .   S
Zn49        O57 1.922       .   S
Zn49        O60 1.922       .   S
Zn50        O51 1.942       .   S
Zn50        O58 1.922       .   S
Zn50        O61 1.922       .   S
Zn50        O62 1.922       .   S
O52         C64 1.304       .   A
O53         C65 1.304       .   A
O54         C66 1.304       .   A
O55         C64 1.304       .   A
O56         C66 1.304       .   A
O57         C65 1.304       .   A
O58         C67 1.304       .   A
O59         C68 1.304       .   A
O60         C67 1.304       .   A
O61         C68 1.304       .   A
O62         C69 1.304       .   A
O63         C69 1.304       .   A
C64        C495 1.540       .   S
C65        C557 1.540       .   S
C66        C309 1.540   1_655   S
C67        C526 1.540       .   S
C68        C340 1.540   1_665   S
C69        C617 1.540       .   S
Zn70        O74 1.942       .   S
Zn70        O75 1.922       .   S
Zn70        O79 1.922       .   S
Zn70        O86 1.922       .   S
Zn71        O74 1.942       .   S
Zn71        O76 1.922       .   S
Zn71        O78 1.922       .   S
Zn71        O82 1.922       .   S
Zn72        O74 1.942       .   S
Zn72        O77 1.922       .   S
Zn72        O80 1.922       .   S
Zn72        O83 1.922       .   S
Zn73        O74 1.942       .   S
Zn73        O81 1.922       .   S
Zn73        O84 1.922       .   S
Zn73        O85 1.922       .   S
O75         C87 1.304       .   A
O76         C88 1.304       .   A
O77         C89 1.304       .   A
O78         C87 1.304       .   A
O79         C89 1.304       .   A
O80         C88 1.304       .   A
O81         C90 1.304       .   A
O82         C91 1.304       .   A
O83         C90 1.304       .   A
O84         C91 1.304       .   A
O85         C92 1.304       .   A
O86         C92 1.304       .   A
C87        C462 1.540       .   S
C88        C524 1.540       .   S
C89        C650 1.540       .   S
C90        C464 1.540   1_565   S
C91        C619 1.540       .   S
C92        C555 1.540   1_556   S
Zn93        O97 1.942       .   S
Zn93        O98 1.922       .   S
Zn93       O102 1.922       .   S
Zn93       O109 1.922       .   S
Zn94        O97 1.942       .   S
Zn94        O99 1.922       .   S
Zn94       O101 1.922       .   S
Zn94       O105 1.922       .   S
Zn95        O97 1.942       .   S
Zn95       O100 1.922       .   S
Zn95       O103 1.922       .   S
Zn95       O106 1.922       .   S
Zn96        O97 1.942       .   S
Zn96       O104 1.922       .   S
Zn96       O107 1.922       .   S
Zn96       O108 1.922       .   S
O98        C110 1.304       .   A
O99        C111 1.304       .   A
O100       C112 1.304       .   A
O101       C110 1.304       .   A
O102       C112 1.304       .   A
O103       C111 1.304       .   A
O104       C113 1.304       .   A
O105       C114 1.304       .   A
O106       C113 1.304       .   A
O107       C114 1.304       .   A
O108       C115 1.304       .   A
O109       C115 1.304       .   A
C110       C276 1.540   1_565   S
C111       C710 1.540       .   S
C112       C774 1.540       .   S
C113       C307 1.540   1_665   S
C114       C772 1.540       .   S
C115       C712 1.540       .   S
Zn116      O120 1.942       .   S
Zn116      O121 1.922       .   S
Zn116      O125 1.922       .   S
Zn116      O132 1.922       .   S
Zn117      O120 1.942       .   S
Zn117      O122 1.922       .   S
Zn117      O124 1.922       .   S
Zn117      O128 1.922       .   S
Zn118      O120 1.942       .   S
Zn118      O123 1.922       .   S
Zn118      O126 1.922       .   S
Zn118      O129 1.922       .   S
Zn119      O120 1.942       .   S
Zn119      O127 1.922       .   S
Zn119      O130 1.922       .   S
Zn119      O131 1.922       .   S
O121       C133 1.304       .   A
O122       C134 1.304       .   A
O123       C135 1.304       .   A
O124       C133 1.304       .   A
O125       C135 1.304       .   A
O126       C134 1.304       .   A
O127       C136 1.304       .   A
O128       C137 1.304       .   A
O129       C136 1.304       .   A
O130       C137 1.304       .   A
O131       C138 1.304       .   A
O132       C138 1.304       .   A
C133       C400 1.540   1_465   S
C134       C681 1.540       .   S
C135       C805 1.540       .   S
C136       C431 1.540   1_565   S
C137       C836 1.540       .   S
C138       C741 1.540   1_556   S
Zn139      O143 1.942       .   S
Zn139      O144 1.922       .   S
Zn139      O148 1.922       .   S
Zn139      O155 1.922       .   S
Zn140      O143 1.942       .   S
Zn140      O145 1.922       .   S
Zn140      O147 1.922       .   S
Zn140      O151 1.922       .   S
Zn141      O143 1.942       .   S
Zn141      O146 1.922       .   S
Zn141      O149 1.922       .   S
Zn141      O152 1.922       .   S
Zn142      O143 1.942       .   S
Zn142      O150 1.922       .   S
Zn142      O153 1.922       .   S
Zn142      O154 1.922       .   S
O144       C156 1.304       .   A
O145       C157 1.304       .   A
O146       C158 1.304       .   A
O147       C156 1.304       .   A
O148       C158 1.304       .   A
O149       C157 1.304       .   A
O150       C159 1.304       .   A
O151       C160 1.304       .   A
O152       C159 1.304       .   A
O153       C160 1.304       .   A
O154       C161 1.304       .   A
O155       C161 1.304       .   A
C156       C586 1.540   1_455   S
C157       C867 1.540       .   S
C158       C743 1.540   1_545   S
C159       C588 1.540       .   S
C160       C803 1.540       .   S
C161       C898 1.540       .   S
Zn162      O166 1.942       .   S
Zn162      O167 1.922       .   S
Zn162      O171 1.922       .   S
Zn162      O178 1.922       .   S
Zn163      O166 1.942       .   S
Zn163      O168 1.922       .   S
Zn163      O170 1.922       .   S
Zn163      O174 1.922       .   S
Zn164      O166 1.942       .   S
Zn164      O169 1.922       .   S
Zn164      O172 1.922       .   S
Zn164      O175 1.922       .   S
Zn165      O166 1.942       .   S
Zn165      O173 1.922       .   S
Zn165      O176 1.922       .   S
Zn165      O177 1.922       .   S
O167       C179 1.304       .   A
O168       C180 1.304       .   A
O169       C181 1.304       .   A
O170       C179 1.304       .   A
O171       C181 1.304       .   A
O172       C180 1.304       .   A
O173       C182 1.304       .   A
O174       C183 1.304       .   A
O175       C182 1.304       .   A
O176       C183 1.304       .   A
O177       C184 1.304       .   A
O178       C184 1.304       .   A
C179       C648 1.540   1_455   S
C180       C834 1.540   1_545   S
C181       C896 1.540       .   S
C182       C679 1.540       .   S
C183       C927 1.540   1_556   S
C184       C865 1.540       .   S
C898       C899 0.030       .   A
C898       C903 0.030       .   A
C899       C900 0.030       .   A
C899       H906 0.025       .   A
C900       C901 0.031       .   A
C900       H905 0.025       .   A
C901       C902 0.031       .   A
C901       C904 0.031       .   A
C902       C903 0.030       .   A
C902      Br908 0.043       .   A
C903       H907 0.025       .   A
C904       C909 0.031       .   A
C904       C913 0.030       .   A
C909       C910 0.030       .   A
C909       F916 0.030       .   A
C910       C911 0.030       .   A
C910       H915 0.025       .   A
C911       C912 0.030       .   A
C911       C914 0.034       .   A
C912       C913 0.030       .   A
C912       H918 0.025       .   A
C913       H917 0.024       .   A
C914       O919 0.033       .   A
C914       C921 0.035       .   A
C914       H928 0.025       .   A
O919       C927 0.033       .   A
C920       C921 0.034       .   A
C920       H923 0.025       .   A
C920       H924 0.025       .   A
C920       C927 0.035       .   A
C921       H922 0.025       .   A
C921       H925 0.025       .   A
H926       C927 0.025       .   A
C867       C868 0.030       .   A
C867       C872 0.030       .   A
C868       C869 0.030       .   A
C868       H875 0.025       .   A
C869       C870 0.031       .   A
C869       H874 0.025       .   A
C870       C871 0.031       .   A
C870       C873 0.031       .   A
C871       C872 0.030       .   A
C871      Br877 0.043       .   A
C872       H876 0.025       .   A
C873       C878 0.031       .   A
C873       C882 0.030       .   A
C878       C879 0.030       .   A
C878       F885 0.030       .   A
C879       C880 0.030       .   A
C879       H884 0.025       .   A
C880       C881 0.030       .   A
C880       C883 0.034       .   A
C881       C882 0.030       .   A
C881       H887 0.025       .   A
C882       H886 0.024       .   A
C883       O888 0.033       .   A
C883       C890 0.035       .   A
C883       H897 0.025       .   A
O888       C896 0.033       .   A
C889       C890 0.034       .   A
C889       H892 0.025       .   A
C889       H893 0.025       .   A
C889       C896 0.035       .   A
C890       H891 0.025       .   A
C890       H894 0.025       .   A
H895       C896 0.025       .   A
C836       C837 0.030       .   A
C836       C841 0.030       .   A
C837       C838 0.030       .   A
C837       H844 0.025       .   A
C838       C839 0.031       .   A
C838       H843 0.025       .   A
C839       C840 0.031       .   A
C839       C842 0.031       .   A
C840       C841 0.030       .   A
C840      Br846 0.043       .   A
C841       H845 0.025       .   A
C842       C847 0.031       .   A
C842       C851 0.030       .   A
C847       C848 0.030       .   A
C847       F854 0.030       .   A
C848       C849 0.030       .   A
C848       H853 0.025       .   A
C849       C850 0.030       .   A
C849       C852 0.034       .   A
C850       C851 0.030       .   A
C850       H856 0.025       .   A
C851       H855 0.024       .   A
C852       O857 0.033       .   A
C852       C859 0.035       .   A
C852       H866 0.025       .   A
O857       C865 0.033       .   A
C858       C859 0.034       .   A
C858       H861 0.025       .   A
C858       H862 0.025       .   A
C858       C865 0.035       .   A
C859       H860 0.025       .   A
C859       H863 0.025       .   A
H864       C865 0.025       .   A
C805       C806 0.030       .   A
C805       C810 0.030       .   A
C806       C807 0.030       .   A
C806       H813 0.025       .   A
C807       C808 0.031       .   A
C807       H812 0.025       .   A
C808       C809 0.031       .   A
C808       C811 0.031       .   A
C809       C810 0.030       .   A
C809      Br815 0.043       .   A
C810       H814 0.025       .   A
C811       C816 0.031       .   A
C811       C820 0.030       .   A
C816       C817 0.030       .   A
C816       F823 0.030       .   A
C817       C818 0.030       .   A
C817       H822 0.025       .   A
C818       C819 0.030       .   A
C818       C821 0.034       .   A
C819       C820 0.030       .   A
C819       H825 0.025       .   A
C820       H824 0.024       .   A
C821       O826 0.033       .   A
C821       C828 0.035       .   A
C821       H835 0.025       .   A
O826       C834 0.033       .   A
C827       C828 0.034       .   A
C827       H830 0.025       .   A
C827       H831 0.025       .   A
C827       C834 0.035       .   A
C828       H829 0.025       .   A
C828       H832 0.025       .   A
H833       C834 0.025       .   A
C774       C775 0.030       .   A
C774       C779 0.030       .   A
C775       C776 0.030       .   A
C775       H782 0.025       .   A
C776       C777 0.031       .   A
C776       H781 0.025       .   A
C777       C778 0.031       .   A
C777       C780 0.031       .   A
C778       C779 0.030       .   A
C778      Br784 0.043       .   A
C779       H783 0.025       .   A
C780       C785 0.031       .   A
C780       C789 0.030       .   A
C785       C786 0.030       .   A
C785       F792 0.030       .   A
C786       C787 0.030       .   A
C786       H791 0.025       .   A
C787       C788 0.030       .   A
C787       C790 0.034       .   A
C788       C789 0.030       .   A
C788       H794 0.025       .   A
C789       H793 0.024       .   A
C790       O795 0.033       .   A
C790       C797 0.035       .   A
C790       H804 0.025       .   A
O795       C803 0.033       .   A
C796       C797 0.034       .   A
C796       H799 0.025       .   A
C796       H800 0.025       .   A
C796       C803 0.035       .   A
C797       H798 0.025       .   A
C797       H801 0.025       .   A
H802       C803 0.025       .   A
C743       C744 0.030       .   A
C743       C748 0.030       .   A
C744       C745 0.030       .   A
C744       H751 0.025       .   A
C745       C746 0.031       .   A
C745       H750 0.025       .   A
C746       C747 0.031       .   A
C746       C749 0.031       .   A
C747       C748 0.030       .   A
C747      Br753 0.043       .   A
C748       H752 0.025       .   A
C749       C754 0.031       .   A
C749       C758 0.030       .   A
C754       C755 0.030       .   A
C754       F761 0.030       .   A
C755       C756 0.030       .   A
C755       H760 0.025       .   A
C756       C757 0.030       .   A
C756       C759 0.034       .   A
C757       C758 0.030       .   A
C757       H763 0.025       .   A
C758       H762 0.024       .   A
C759       O764 0.033       .   A
C759       C766 0.035       .   A
C759       H773 0.025       .   A
O764       C772 0.033       .   A
C765       C766 0.034       .   A
C765       H768 0.025       .   A
C765       H769 0.025       .   A
C765       C772 0.035       .   A
C766       H767 0.025       .   A
C766       H770 0.025       .   A
H771       C772 0.025       .   A
C712       C713 0.030       .   A
C712       C717 0.030       .   A
C713       C714 0.030       .   A
C713       H720 0.025       .   A
C714       C715 0.031       .   A
C714       H719 0.025       .   A
C715       C716 0.031       .   A
C715       C718 0.031       .   A
C716       C717 0.030       .   A
C716      Br722 0.043       .   A
C717       H721 0.025       .   A
C718       C723 0.031       .   A
C718       C727 0.030       .   A
C723       C724 0.030       .   A
C723       F730 0.030       .   A
C724       C725 0.030       .   A
C724       H729 0.025       .   A
C725       C726 0.030       .   A
C725       C728 0.034       .   A
C726       C727 0.030       .   A
C726       H732 0.025       .   A
C727       H731 0.024       .   A
C728       O733 0.033       .   A
C728       C735 0.035       .   A
C728       H742 0.025       .   A
O733       C741 0.033       .   A
C734       C735 0.034       .   A
C734       H737 0.025       .   A
C734       H738 0.025       .   A
C734       C741 0.035       .   A
C735       H736 0.025       .   A
C735       H739 0.025       .   A
H740       C741 0.025       .   A
C681       C682 0.030       .   A
C681       C686 0.030       .   A
C682       C683 0.030       .   A
C682       H689 0.025       .   A
C683       C684 0.031       .   A
C683       H688 0.025       .   A
C684       C685 0.031       .   A
C684       C687 0.031       .   A
C685       C686 0.030       .   A
C685      Br691 0.043       .   A
C686       H690 0.025       .   A
C687       C692 0.031       .   A
C687       C696 0.030       .   A
C692       C693 0.030       .   A
C692       F699 0.030       .   A
C693       C694 0.030       .   A
C693       H698 0.025       .   A
C694       C695 0.030       .   A
C694       C697 0.034       .   A
C695       C696 0.030       .   A
C695       H701 0.025       .   A
C696       H700 0.024       .   A
C697       O702 0.033       .   A
C697       C704 0.035       .   A
C697       H711 0.025       .   A
O702       C710 0.033       .   A
C703       C704 0.034       .   A
C703       H706 0.025       .   A
C703       H707 0.025       .   A
C703       C710 0.035       .   A
C704       H705 0.025       .   A
C704       H708 0.025       .   A
H709       C710 0.025       .   A
C650       C651 0.030       .   A
C650       C655 0.030       .   A
C651       C652 0.030       .   A
C651       H658 0.025       .   A
C652       C653 0.031       .   A
C652       H657 0.025       .   A
C653       C654 0.031       .   A
C653       C656 0.031       .   A
C654       C655 0.030       .   A
C654      Br660 0.043       .   A
C655       H659 0.025       .   A
C656       C661 0.031       .   A
C656       C665 0.030       .   A
C661       C662 0.030       .   A
C661       F668 0.030       .   A
C662       C663 0.030       .   A
C662       H667 0.025       .   A
C663       C664 0.030       .   A
C663       C666 0.034       .   A
C664       C665 0.030       .   A
C664       H670 0.025       .   A
C665       H669 0.024       .   A
C666       O671 0.033       .   A
C666       C673 0.035       .   A
C666       H680 0.025       .   A
O671       C679 0.033       .   A
C672       C673 0.034       .   A
C672       H675 0.025       .   A
C672       H676 0.025       .   A
C672       C679 0.035       .   A
C673       H674 0.025       .   A
C673       H677 0.025       .   A
H678       C679 0.025       .   A
C619       C620 0.030       .   A
C619       C624 0.030       .   A
C620       C621 0.030       .   A
C620       H627 0.025       .   A
C621       C622 0.031       .   A
C621       H626 0.025       .   A
C622       C623 0.031       .   A
C622       C625 0.031       .   A
C623       C624 0.030       .   A
C623      Br629 0.043       .   A
C624       H628 0.025       .   A
C625       C630 0.031       .   A
C625       C634 0.030       .   A
C630       C631 0.030       .   A
C630       F637 0.030       .   A
C631       C632 0.030       .   A
C631       H636 0.025       .   A
C632       C633 0.030       .   A
C632       C635 0.034       .   A
C633       C634 0.030       .   A
C633       H639 0.025       .   A
C634       H638 0.024       .   A
C635       O640 0.033       .   A
C635       C642 0.035       .   A
C635       H649 0.025       .   A
O640       C648 0.033       .   A
C641       C642 0.034       .   A
C641       H644 0.025       .   A
C641       H645 0.025       .   A
C641       C648 0.035       .   A
C642       H643 0.025       .   A
C642       H646 0.025       .   A
H647       C648 0.025       .   A
C588       C589 0.030       .   A
C588       C593 0.030       .   A
C589       C590 0.030       .   A
C589       H596 0.025       .   A
C590       C591 0.031       .   A
C590       H595 0.025       .   A
C591       C592 0.031       .   A
C591       C594 0.031       .   A
C592       C593 0.030       .   A
C592      Br598 0.043       .   A
C593       H597 0.025       .   A
C594       C599 0.031       .   A
C594       C603 0.030       .   A
C599       C600 0.030       .   A
C599       F606 0.030       .   A
C600       C601 0.030       .   A
C600       H605 0.025       .   A
C601       C602 0.030       .   A
C601       C604 0.034       .   A
C602       C603 0.030       .   A
C602       H608 0.025       .   A
C603       H607 0.024       .   A
C604       O609 0.033       .   A
C604       C611 0.035       .   A
C604       H618 0.025       .   A
O609       C617 0.033       .   A
C610       C611 0.034       .   A
C610       H613 0.025       .   A
C610       H614 0.025       .   A
C610       C617 0.035       .   A
C611       H612 0.025       .   A
C611       H615 0.025       .   A
H616       C617 0.025       .   A
C557       C558 0.030       .   A
C557       C562 0.030       .   A
C558       C559 0.030       .   A
C558       H565 0.025       .   A
C559       C560 0.031       .   A
C559       H564 0.025       .   A
C560       C561 0.031       .   A
C560       C563 0.031       .   A
C561       C562 0.030       .   A
C561      Br567 0.043       .   A
C562       H566 0.025       .   A
C563       C568 0.031       .   A
C563       C572 0.030       .   A
C568       C569 0.030       .   A
C568       F575 0.030       .   A
C569       C570 0.030       .   A
C569       H574 0.025       .   A
C570       C571 0.030       .   A
C570       C573 0.034       .   A
C571       C572 0.030       .   A
C571       H577 0.025       .   A
C572       H576 0.024       .   A
C573       O578 0.033       .   A
C573       C580 0.035       .   A
C573       H587 0.025       .   A
O578       C586 0.033       .   A
C579       C580 0.034       .   A
C579       H582 0.025       .   A
C579       H583 0.025       .   A
C579       C586 0.035       .   A
C580       H581 0.025       .   A
C580       H584 0.025       .   A
H585       C586 0.025       .   A
C526       C527 0.030       .   A
C526       C531 0.030       .   A
C527       C528 0.030       .   A
C527       H534 0.025       .   A
C528       C529 0.031       .   A
C528       H533 0.025       .   A
C529       C530 0.031       .   A
C529       C532 0.031       .   A
C530       C531 0.030       .   A
C530      Br536 0.043       .   A
C531       H535 0.025       .   A
C532       C537 0.031       .   A
C532       C541 0.030       .   A
C537       C538 0.030       .   A
C537       F544 0.030       .   A
C538       C539 0.030       .   A
C538       H543 0.025       .   A
C539       C540 0.030       .   A
C539       C542 0.034       .   A
C540       C541 0.030       .   A
C540       H546 0.025       .   A
C541       H545 0.024       .   A
C542       O547 0.033       .   A
C542       C549 0.035       .   A
C542       H556 0.025       .   A
O547       C555 0.033       .   A
C548       C549 0.034       .   A
C548       H551 0.025       .   A
C548       H552 0.025       .   A
C548       C555 0.035       .   A
C549       H550 0.025       .   A
C549       H553 0.025       .   A
H554       C555 0.025       .   A
C495       C496 0.030       .   A
C495       C500 0.030       .   A
C496       C497 0.030       .   A
C496       H503 0.025       .   A
C497       C498 0.031       .   A
C497       H502 0.025       .   A
C498       C499 0.031       .   A
C498       C501 0.031       .   A
C499       C500 0.030       .   A
C499      Br505 0.043       .   A
C500       H504 0.025       .   A
C501       C506 0.031       .   A
C501       C510 0.030       .   A
C506       C507 0.030       .   A
C506       F513 0.030       .   A
C507       C508 0.030       .   A
C507       H512 0.025       .   A
C508       C509 0.030       .   A
C508       C511 0.034       .   A
C509       C510 0.030       .   A
C509       H515 0.025       .   A
C510       H514 0.024       .   A
C511       O516 0.033       .   A
C511       C518 0.035       .   A
C511       H525 0.025       .   A
O516       C524 0.033       .   A
C517       C518 0.034       .   A
C517       H520 0.025       .   A
C517       H521 0.025       .   A
C517       C524 0.035       .   A
C518       H519 0.025       .   A
C518       H522 0.025       .   A
H523       C524 0.025       .   A
C464       C465 0.030       .   A
C464       C469 0.030       .   A
C465       C466 0.030       .   A
C465       H472 0.025       .   A
C466       C467 0.031       .   A
C466       H471 0.025       .   A
C467       C468 0.031       .   A
C467       C470 0.031       .   A
C468       C469 0.030       .   A
C468      Br474 0.043       .   A
C469       H473 0.025       .   A
C470       C475 0.031       .   A
C470       C479 0.030       .   A
C475       C476 0.030       .   A
C475       F482 0.030       .   A
C476       C477 0.030       .   A
C476       H481 0.025       .   A
C477       C478 0.030       .   A
C477       C480 0.034       .   A
C478       C479 0.030       .   A
C478       H484 0.025       .   A
C479       H483 0.024       .   A
C480       O485 0.033       .   A
C480       C487 0.035       .   A
C480       H494 0.025       .   A
O485       C493 0.033       .   A
C486       C487 0.034       .   A
C486       H489 0.025       .   A
C486       H490 0.025       .   A
C486       C493 0.035       .   A
C487       H488 0.025       .   A
C487       H491 0.025       .   A
H492       C493 0.025       .   A
C433       C434 0.030       .   A
C433       C438 0.030       .   A
C434       C435 0.030       .   A
C434       H441 0.025       .   A
C435       C436 0.031       .   A
C435       H440 0.025       .   A
C436       C437 0.031       .   A
C436       C439 0.031       .   A
C437       C438 0.030       .   A
C437      Br443 0.043       .   A
C438       H442 0.025       .   A
C439       C444 0.031       .   A
C439       C448 0.030       .   A
C444       C445 0.030       .   A
C444       F451 0.030       .   A
C445       C446 0.030       .   A
C445       H450 0.025       .   A
C446       C447 0.030       .   A
C446       C449 0.034       .   A
C447       C448 0.030       .   A
C447       H453 0.025       .   A
C448       H452 0.024       .   A
C449       O454 0.033       .   A
C449       C456 0.035       .   A
C449       H463 0.025       .   A
O454       C462 0.033       .   A
C455       C456 0.034       .   A
C455       H458 0.025       .   A
C455       H459 0.025       .   A
C455       C462 0.035       .   A
C456       H457 0.025       .   A
C456       H460 0.025       .   A
H461       C462 0.025       .   A
C402       C403 0.030       .   A
C402       C407 0.030       .   A
C403       C404 0.030       .   A
C403       H410 0.025       .   A
C404       C405 0.031       .   A
C404       H409 0.025       .   A
C405       C406 0.031       .   A
C405       C408 0.031       .   A
C406       C407 0.030       .   A
C406      Br412 0.043       .   A
C407       H411 0.025       .   A
C408       C413 0.031       .   A
C408       C417 0.030       .   A
C413       C414 0.030       .   A
C413       F420 0.030       .   A
C414       C415 0.030       .   A
C414       H419 0.025       .   A
C415       C416 0.030       .   A
C415       C418 0.034       .   A
C416       C417 0.030       .   A
C416       H422 0.025       .   A
C417       H421 0.024       .   A
C418       O423 0.033       .   A
C418       C425 0.035       .   A
C418       H432 0.025       .   A
O423       C431 0.033       .   A
C424       C425 0.034       .   A
C424       H427 0.025       .   A
C424       H428 0.025       .   A
C424       C431 0.035       .   A
C425       H426 0.025       .   A
C425       H429 0.025       .   A
H430       C431 0.025       .   A
C371       C372 0.030       .   A
C371       C376 0.030       .   A
C372       C373 0.030       .   A
C372       H379 0.025       .   A
C373       C374 0.031       .   A
C373       H378 0.025       .   A
C374       C375 0.031       .   A
C374       C377 0.031       .   A
C375       C376 0.030       .   A
C375      Br381 0.043       .   A
C376       H380 0.025       .   A
C377       C382 0.031       .   A
C377       C386 0.030       .   A
C382       C383 0.030       .   A
C382       F389 0.030       .   A
C383       C384 0.030       .   A
C383       H388 0.025       .   A
C384       C385 0.030       .   A
C384       C387 0.034       .   A
C385       C386 0.030       .   A
C385       H391 0.025       .   A
C386       H390 0.024       .   A
C387       O392 0.033       .   A
C387       C394 0.035       .   A
C387       H401 0.025       .   A
O392       C400 0.033       .   A
C393       C394 0.034       .   A
C393       H396 0.025       .   A
C393       H397 0.025       .   A
C393       C400 0.035       .   A
C394       H395 0.025       .   A
C394       H398 0.025       .   A
H399       C400 0.025       .   A
C340       C341 0.030       .   A
C340       C345 0.030       .   A
C341       C342 0.030       .   A
C341       H348 0.025       .   A
C342       C343 0.031       .   A
C342       H347 0.025       .   A
C343       C344 0.031       .   A
C343       C346 0.031       .   A
C344       C345 0.030       .   A
C344      Br350 0.043       .   A
C345       H349 0.025       .   A
C346       C351 0.031       .   A
C346       C355 0.030       .   A
C351       C352 0.030       .   A
C351       F358 0.030       .   A
C352       C353 0.030       .   A
C352       H357 0.025       .   A
C353       C354 0.030       .   A
C353       C356 0.034       .   A
C354       C355 0.030       .   A
C354       H360 0.025       .   A
C355       H359 0.024       .   A
C356       O361 0.033       .   A
C356       C363 0.035       .   A
C356       H370 0.025       .   A
O361       C369 0.033       .   A
C362       C363 0.034       .   A
C362       H365 0.025       .   A
C362       H366 0.025       .   A
C362       C369 0.035       .   A
C363       H364 0.025       .   A
C363       H367 0.025       .   A
H368       C369 0.025       .   A
C309       C310 0.030       .   A
C309       C314 0.030       .   A
C310       C311 0.030       .   A
C310       H317 0.025       .   A
C311       C312 0.031       .   A
C311       H316 0.025       .   A
C312       C313 0.031       .   A
C312       C315 0.031       .   A
C313       C314 0.030       .   A
C313      Br319 0.043       .   A
C314       H318 0.025       .   A
C315       C320 0.031       .   A
C315       C324 0.030       .   A
C320       C321 0.030       .   A
C320       F327 0.030       .   A
C321       C322 0.030       .   A
C321       H326 0.025       .   A
C322       C323 0.030       .   A
C322       C325 0.034       .   A
C323       C324 0.030       .   A
C323       H329 0.025       .   A
C324       H328 0.024       .   A
C325       O330 0.033       .   A
C325       C332 0.035       .   A
C325       H339 0.025       .   A
O330       C338 0.033       .   A
C331       C332 0.034       .   A
C331       H334 0.025       .   A
C331       H335 0.025       .   A
C331       C338 0.035       .   A
C332       H333 0.025       .   A
C332       H336 0.025       .   A
H337       C338 0.025       .   A
C278       C279 0.030       .   A
C278       C283 0.030       .   A
C279       C280 0.030       .   A
C279       H286 0.025       .   A
C280       C281 0.031       .   A
C280       H285 0.025       .   A
C281       C282 0.031       .   A
C281       C284 0.031       .   A
C282       C283 0.030       .   A
C282      Br288 0.043       .   A
C283       H287 0.025       .   A
C284       C289 0.031       .   A
C284       C293 0.030       .   A
C289       C290 0.030       .   A
C289       F296 0.030       .   A
C290       C291 0.030       .   A
C290       H295 0.025       .   A
C291       C292 0.030       .   A
C291       C294 0.034       .   A
C292       C293 0.030       .   A
C292       H298 0.025       .   A
C293       H297 0.024       .   A
C294       O299 0.033       .   A
C294       C301 0.035       .   A
C294       H308 0.025       .   A
O299       C307 0.033       .   A
C300       C301 0.034       .   A
C300       H303 0.025       .   A
C300       H304 0.025       .   A
C300       C307 0.035       .   A
C301       H302 0.025       .   A
C301       H305 0.025       .   A
H306       C307 0.025       .   A
C247       C248 0.030       .   A
C247       C252 0.030       .   A
C248       C249 0.030       .   A
C248       H255 0.025       .   A
C249       C250 0.031       .   A
C249       H254 0.025       .   A
C250       C251 0.031       .   A
C250       C253 0.031       .   A
C251       C252 0.030       .   A
C251      Br257 0.043       .   A
C252       H256 0.025       .   A
C253       C258 0.031       .   A
C253       C262 0.030       .   A
C258       C259 0.030       .   A
C258       F265 0.030       .   A
C259       C260 0.030       .   A
C259       H264 0.025       .   A
C260       C261 0.030       .   A
C260       C263 0.034       .   A
C261       C262 0.030       .   A
C261       H267 0.025       .   A
C262       H266 0.024       .   A
C263       O268 0.033       .   A
C263       C270 0.035       .   A
C263       H277 0.025       .   A
O268       C276 0.033       .   A
C269       C270 0.034       .   A
C269       H272 0.025       .   A
C269       H273 0.025       .   A
C269       C276 0.035       .   A
C270       H271 0.025       .   A
C270       H274 0.025       .   A
H275       C276 0.025       .   A
C216       C217 0.030       .   A
C216       C221 0.030       .   A
C217       C218 0.030       .   A
C217       H224 0.025       .   A
C218       C219 0.031       .   A
C218       H223 0.025       .   A
C219       C220 0.031       .   A
C219       C222 0.031       .   A
C220       C221 0.030       .   A
C220      Br226 0.043       .   A
C221       H225 0.025       .   A
C222       C227 0.031       .   A
C222       C231 0.030       .   A
C227       C228 0.030       .   A
C227       F234 0.030       .   A
C228       C229 0.030       .   A
C228       H233 0.025       .   A
C229       C230 0.030       .   A
C229       C232 0.034       .   A
C230       C231 0.030       .   A
C230       H236 0.025       .   A
C231       H235 0.024       .   A
C232       O237 0.033       .   A
C232       C239 0.035       .   A
C232       H246 0.025       .   A
O237       C245 0.033       .   A
C238       C239 0.034       .   A
C238       H241 0.025       .   A
C238       H242 0.025       .   A
C238       C245 0.035       .   A
C239       H240 0.025       .   A
C239       H243 0.025       .   A
H244       C245 0.025       .   A
C185       C186 0.030       .   A
C185       C190 0.030       .   A
C186       C187 0.030       .   A
C186       H193 0.025       .   A
C187       C188 0.031       .   A
C187       H192 0.025       .   A
C188       C189 0.031       .   A
C188       C191 0.031       .   A
C189       C190 0.030       .   A
C189      Br195 0.043       .   A
C190       H194 0.025       .   A
C191       C196 0.031       .   A
C191       C200 0.030       .   A
C196       C197 0.030       .   A
C196       F203 0.030       .   A
C197       C198 0.030       .   A
C197       H202 0.025       .   A
C198       C199 0.030       .   A
C198       C201 0.034       .   A
C199       C200 0.030       .   A
C199       H205 0.025       .   A
C200       H204 0.024       .   A
C201       O206 0.033       .   A
C201       C208 0.035       .   A
C201       H215 0.025       .   A
O206       C214 0.033       .   A
C207       C208 0.034       .   A
C207       H210 0.025       .   A
C207       H211 0.025       .   A
C207       C214 0.035       .   A
C208       H209 0.025       .   A
C208       H212 0.025       .   A
H213       C214 0.025       .   A
