data_pcu_v1-6c_Zn_1_Ch_1-28_fer_tobacco
_audit_creation_date              2021-02-03
_audit_creation_method            'tobacco_3.0'
_symmetry_space_group_name_H-M    'P1'
_symmetry_Int_Tables_number       1
_symmetry_cell_setting            triclinic
loop_
_symmetry_equiv_pos_as_xyz
  x,y,z
_cell_length_a                    38.08089614049973
_cell_length_b                    38.08089614049973
_cell_length_c                    38.08089614049973
_cell_angle_alpha                 90.0
_cell_angle_beta                  90.0
_cell_angle_gamma                 90.0
loop_
_atom_site_label
_atom_site_type_symbol
_atom_site_fract_x
_atom_site_fract_y
_atom_site_fract_z
_atom_site_charge
Zn1       Zn   -0.0294425844    0.0294425844   -0.0294425844          1.4972
Zn2       Zn    0.0294425844    0.0294425844    0.0294425844          1.4936
Zn3       Zn   -0.0294425844   -0.0294425844    0.0294425844          1.4911
Zn4       Zn    0.0294425844   -0.0294425844   -0.0294425844          1.4948
O5         O    0.0000000000    0.0000000000    0.0000000000         -2.1665
O6         O   -0.0216381462    0.0786903751   -0.0216381462         -1.0728
O7         O    0.0216381462    0.0216381462    0.0786903751          -1.071
O8         O   -0.0786903751   -0.0216381462    0.0216381462         -1.0662
O9         O    0.0216381462    0.0786903751    0.0216381462          -1.073
O10        O   -0.0786903751    0.0216381462   -0.0216381462          -1.069
O11        O   -0.0216381462   -0.0216381462    0.0786903751         -1.0748
O12        O    0.0216381462   -0.0786903751   -0.0216381462         -1.0687
O13        O    0.0786903751    0.0216381462    0.0216381462         -1.0763
O14        O   -0.0216381462   -0.0786903751    0.0216381462         -1.0702
O15        O    0.0786903751   -0.0216381462   -0.0216381462         -1.0748
O16        O    0.0216381462   -0.0216381462   -0.0786903751         -1.0739
O17        O   -0.0216381462    0.0216381462   -0.0786903751         -1.0718
C18        C   -0.0000000000    0.0940839204   -0.0000000000          0.4461
C19        C    0.0000000000   -0.0000000000    0.0940839204           0.451
C20        C   -0.0940839204    0.0000000000    0.0000000000          0.4406
C21        C    0.0000000000   -0.0940839204    0.0000000000          0.4443
C22        C    0.0940839204   -0.0000000000   -0.0000000000          0.4557
C23        C   -0.0000000000    0.0000000000   -0.0940839204          0.4462
Zn24      Zn    0.9705574156    0.0294425844    0.4705574156          1.4972
Zn25      Zn    1.0294425844   -0.0294425844    0.4705574156          1.4936
Zn26      Zn    1.0294425844    0.0294425844    0.5294425844          1.4911
Zn27      Zn    0.9705574156   -0.0294425844    0.5294425844          1.4948
O28        O    1.0000000000    0.0000000000    0.5000000000         -2.1665
O29        O    0.9783618538    0.0216381462    0.4213096249         -1.0728
O30        O    1.0786903751   -0.0216381462    0.4783618538          -1.071
O31        O    1.0216381462    0.0786903751    0.5216381462         -1.0662
O32        O    1.0216381462   -0.0216381462    0.4213096249          -1.073
O33        O    0.9783618538    0.0786903751    0.4783618538          -1.069
O34        O    1.0786903751    0.0216381462    0.5216381462         -1.0748
O35        O    0.9783618538   -0.0216381462    0.5786903751         -1.0687
O36        O    1.0216381462   -0.0786903751    0.4783618538         -1.0763
O37        O    1.0216381462    0.0216381462    0.5786903751         -1.0702
O38        O    0.9783618538   -0.0786903751    0.5216381462         -1.0748
O39        O    0.9213096249   -0.0216381462    0.5216381462         -1.0739
O40        O    0.9213096249    0.0216381462    0.4783618538         -1.0718
C41        C    1.0000000000    0.0000000000    0.4059160796          0.4461
C42        C    1.0940839204    0.0000000000    0.5000000000           0.451
C43        C    1.0000000000    0.0940839204    0.5000000000          0.4406
C44        C    1.0000000000    0.0000000000    0.5940839204          0.4443
C45        C    1.0000000000   -0.0940839204    0.5000000000          0.4557
C46        C    0.9059160796    0.0000000000    0.5000000000          0.4462
Zn47      Zn    1.0294425844    0.4705574156   -0.0294425844          1.4972
Zn48      Zn    0.9705574156    0.4705574156    0.0294425844          1.4936
Zn49      Zn    1.0294425844    0.5294425844    0.0294425844          1.4911
Zn50      Zn    0.9705574156    0.5294425844   -0.0294425844          1.4948
O51        O    1.0000000000    0.5000000000    0.0000000000         -2.1665
O52        O    1.0216381462    0.4213096249   -0.0216381462         -1.0728
O53        O    0.9783618538    0.4783618538    0.0786903751          -1.071
O54        O    1.0786903751    0.5216381462    0.0216381462         -1.0662
O55        O    0.9783618538    0.4213096249    0.0216381462          -1.073
O56        O    1.0786903751    0.4783618538   -0.0216381462          -1.069
O57        O    1.0216381462    0.5216381462    0.0786903751         -1.0748
O58        O    0.9783618538    0.5786903751   -0.0216381462         -1.0687
O59        O    0.9213096249    0.4783618538    0.0216381462         -1.0763
O60        O    1.0216381462    0.5786903751    0.0216381462         -1.0702
O61        O    0.9213096249    0.5216381462   -0.0216381462         -1.0748
O62        O    0.9783618538    0.5216381462   -0.0786903751         -1.0739
O63        O    1.0216381462    0.4783618538   -0.0786903751         -1.0718
C64        C    1.0000000000    0.4059160796    0.0000000000          0.4461
C65        C    1.0000000000    0.5000000000    0.0940839204           0.451
C66        C    1.0940839204    0.5000000000    0.0000000000          0.4406
C67        C    1.0000000000    0.5940839204    0.0000000000          0.4443
C68        C    0.9059160796    0.5000000000    0.0000000000          0.4557
C69        C    1.0000000000    0.5000000000   -0.0940839204          0.4462
Zn70      Zn    0.9705574156    0.4705574156    0.5294425844          1.4972
Zn71      Zn    1.0294425844    0.4705574156    0.4705574156          1.4936
Zn72      Zn    0.9705574156    0.5294425844    0.4705574156          1.4911
Zn73      Zn    1.0294425844    0.5294425844    0.5294425844          1.4948
O74        O    1.0000000000    0.5000000000    0.5000000000         -2.1665
O75        O    0.9783618538    0.4213096249    0.5216381462         -1.0728
O76        O    1.0216381462    0.4783618538    0.4213096249          -1.071
O77        O    0.9213096249    0.5216381462    0.4783618538         -1.0662
O78        O    1.0216381462    0.4213096249    0.4783618538          -1.073
O79        O    0.9213096249    0.4783618538    0.5216381462          -1.069
O80        O    0.9783618538    0.5216381462    0.4213096249         -1.0748
O81        O    1.0216381462    0.5786903751    0.5216381462         -1.0687
O82        O    1.0786903751    0.4783618538    0.4783618538         -1.0763
O83        O    0.9783618538    0.5786903751    0.4783618538         -1.0702
O84        O    1.0786903751    0.5216381462    0.5216381462         -1.0748
O85        O    1.0216381462    0.5216381462    0.5786903751         -1.0739
O86        O    0.9783618538    0.4783618538    0.5786903751         -1.0718
C87        C    1.0000000000    0.4059160796    0.5000000000          0.4461
C88        C    1.0000000000    0.5000000000    0.4059160796           0.451
C89        C    0.9059160796    0.5000000000    0.5000000000          0.4406
C90        C    1.0000000000    0.5940839204    0.5000000000          0.4443
C91        C    1.0940839204    0.5000000000    0.5000000000          0.4557
C92        C    1.0000000000    0.5000000000    0.5940839204          0.4462
Zn93      Zn    0.5294425844    1.0294425844    0.0294425844          1.4972
Zn94      Zn    0.4705574156    1.0294425844   -0.0294425844          1.4936
Zn95      Zn    0.5294425844    0.9705574156   -0.0294425844          1.4911
Zn96      Zn    0.4705574156    0.9705574156    0.0294425844          1.4948
O97        O    0.5000000000    1.0000000000    0.0000000000         -2.1665
O98        O    0.5216381462    1.0786903751    0.0216381462         -1.0728
O99        O    0.4783618538    1.0216381462   -0.0786903751          -1.071
O100       O    0.5786903751    0.9783618538   -0.0216381462         -1.0662
O101       O    0.4783618538    1.0786903751   -0.0216381462          -1.073
O102       O    0.5786903751    1.0216381462    0.0216381462          -1.069
O103       O    0.5216381462    0.9783618538   -0.0786903751         -1.0748
O104       O    0.4783618538    0.9213096249    0.0216381462         -1.0687
O105       O    0.4213096249    1.0216381462   -0.0216381462         -1.0763
O106       O    0.5216381462    0.9213096249   -0.0216381462         -1.0702
O107       O    0.4213096249    0.9783618538    0.0216381462         -1.0748
O108       O    0.4783618538    0.9783618538    0.0786903751         -1.0739
O109       O    0.5216381462    1.0216381462    0.0786903751         -1.0718
C110       C    0.5000000000    1.0940839204    0.0000000000          0.4461
C111       C    0.5000000000    1.0000000000   -0.0940839204           0.451
C112       C    0.5940839204    1.0000000000    0.0000000000          0.4406
C113       C    0.5000000000    0.9059160796    0.0000000000          0.4443
C114       C    0.4059160796    1.0000000000    0.0000000000          0.4557
C115       C    0.5000000000    1.0000000000    0.0940839204          0.4462
Zn116     Zn    0.4705574156    1.0294425844    0.5294425844          1.4972
Zn117     Zn    0.4705574156    0.9705574156    0.4705574156          1.4936
Zn118     Zn    0.5294425844    1.0294425844    0.4705574156          1.4911
Zn119     Zn    0.5294425844    0.9705574156    0.5294425844          1.4948
O120       O    0.5000000000    1.0000000000    0.5000000000         -2.1665
O121       O    0.4213096249    1.0216381462    0.5216381462         -1.0728
O122       O    0.4783618538    0.9783618538    0.4213096249          -1.071
O123       O    0.5216381462    1.0786903751    0.4783618538         -1.0662
O124       O    0.4213096249    0.9783618538    0.4783618538          -1.073
O125       O    0.4783618538    1.0786903751    0.5216381462          -1.069
O126       O    0.5216381462    1.0216381462    0.4213096249         -1.0748
O127       O    0.5786903751    0.9783618538    0.5216381462         -1.0687
O128       O    0.4783618538    0.9213096249    0.4783618538         -1.0763
O129       O    0.5786903751    1.0216381462    0.4783618538         -1.0702
O130       O    0.5216381462    0.9213096249    0.5216381462         -1.0748
O131       O    0.5216381462    0.9783618538    0.5786903751         -1.0739
O132       O    0.4783618538    1.0216381462    0.5786903751         -1.0718
C133       C    0.4059160796    1.0000000000    0.5000000000          0.4461
C134       C    0.5000000000    1.0000000000    0.4059160796           0.451
C135       C    0.5000000000    1.0940839204    0.5000000000          0.4406
C136       C    0.5940839204    1.0000000000    0.5000000000          0.4443
C137       C    0.5000000000    0.9059160796    0.5000000000          0.4557
C138       C    0.5000000000    1.0000000000    0.5940839204          0.4462
Zn139     Zn    0.4705574156    0.5294425844   -0.0294425844          1.4972
Zn140     Zn    0.4705574156    0.4705574156    0.0294425844          1.4936
Zn141     Zn    0.5294425844    0.4705574156   -0.0294425844          1.4911
Zn142     Zn    0.5294425844    0.5294425844    0.0294425844          1.4948
O143       O    0.5000000000    0.5000000000    0.0000000000         -2.1665
O144       O    0.4213096249    0.5216381462   -0.0216381462         -1.0728
O145       O    0.4783618538    0.4213096249    0.0216381462          -1.071
O146       O    0.5216381462    0.4783618538   -0.0786903751         -1.0662
O147       O    0.4213096249    0.4783618538    0.0216381462          -1.073
O148       O    0.4783618538    0.5216381462   -0.0786903751          -1.069
O149       O    0.5216381462    0.4213096249   -0.0216381462         -1.0748
O150       O    0.5786903751    0.5216381462    0.0216381462         -1.0687
O151       O    0.4783618538    0.4783618538    0.0786903751         -1.0763
O152       O    0.5786903751    0.4783618538   -0.0216381462         -1.0702
O153       O    0.5216381462    0.5216381462    0.0786903751         -1.0748
O154       O    0.5216381462    0.5786903751    0.0216381462         -1.0739
O155       O    0.4783618538    0.5786903751   -0.0216381462         -1.0718
C156       C    0.4059160796    0.5000000000    0.0000000000          0.4461
C157       C    0.5000000000    0.4059160796    0.0000000000           0.451
C158       C    0.5000000000    0.5000000000   -0.0940839204          0.4406
C159       C    0.5940839204    0.5000000000    0.0000000000          0.4443
C160       C    0.5000000000    0.5000000000    0.0940839204          0.4557
C161       C    0.5000000000    0.5940839204    0.0000000000          0.4462
Zn162     Zn    0.5294425844    0.4705574156    0.4705574156          1.4972
Zn163     Zn    0.4705574156    0.5294425844    0.4705574156          1.4936
Zn164     Zn    0.4705574156    0.4705574156    0.5294425844          1.4911
Zn165     Zn    0.5294425844    0.5294425844    0.5294425844          1.4948
O166       O    0.5000000000    0.5000000000    0.5000000000         -2.1665
O167       O    0.5216381462    0.4783618538    0.4213096249         -1.0728
O168       O    0.4213096249    0.5216381462    0.4783618538          -1.071
O169       O    0.4783618538    0.4213096249    0.5216381462         -1.0662
O170       O    0.4783618538    0.5216381462    0.4213096249          -1.073
O171       O    0.5216381462    0.4213096249    0.4783618538          -1.069
O172       O    0.4213096249    0.4783618538    0.5216381462         -1.0748
O173       O    0.5216381462    0.5216381462    0.5786903751         -1.0687
O174       O    0.4783618538    0.5786903751    0.4783618538         -1.0763
O175       O    0.4783618538    0.4783618538    0.5786903751         -1.0702
O176       O    0.5216381462    0.5786903751    0.5216381462         -1.0748
O177       O    0.5786903751    0.5216381462    0.5216381462         -1.0739
O178       O    0.5786903751    0.4783618538    0.4783618538         -1.0718
C179       C    0.5000000000    0.5000000000    0.4059160796          0.4461
C180       C    0.4059160796    0.5000000000    0.5000000000           0.451
C181       C    0.5000000000    0.4059160796    0.5000000000          0.4406
C182       C    0.5000000000    0.5000000000    0.5940839204          0.4443
C183       C    0.5000000000    0.5940839204    0.5000000000          0.4557
C184       C    0.5940839204    0.5000000000    0.5000000000          0.4462
C737       C    0.5000000000    0.5000000000   -0.1345241452          0.6604
C738       C    0.4956192661    0.4672570408   -0.1476305866          0.6647
C739       C    0.4995496877    0.4606555698   -0.1824265698          0.6648
C740       C    0.5104383816    0.4858986000   -0.2049031044          0.6583
C741       C    0.5196222347    0.5165905410   -0.1907516581          0.6495
C742       C    0.5109814465    0.5238518746   -0.1577350370          0.6539
C743       C    0.5082828752    0.4828437811   -0.2454576908          0.6645
C744       C    0.4909300847    0.4341399219   -0.1910597411         -0.3274
H745       H    0.4846393527    0.4469142199   -0.1306216865          -0.328
O746       O    0.4857195802    0.5453144840   -0.1597183621         -0.3227
H747       H    0.5252957938    0.5385941503   -0.2080488161           0.647
H748       H    0.4750760900    0.5210337594   -0.1628009539         -0.3136
C749       C    0.5016735533    0.5177373225   -0.2664284835         -0.3263
N750       N    0.4952245265    0.5104312813   -0.3042374837         -0.3166
N751       N    0.4765891095    0.4899201350   -0.2957530743         -0.3016
N752       N    0.4930733299    0.4743695767   -0.2687576075         -0.3197
C753       C    0.4958707982    0.5219538283   -0.3379178006         -0.3132
H754       H    0.4802830443    0.5335700374   -0.2548103372         -0.3079
H755       H    0.5253423153    0.5339818878   -0.2648278583           0.653
H756       H    0.5303266437    0.4682102317   -0.2564494831          0.6455
C757       C    0.5000000000    0.5000000000   -0.3654758548         -0.3146
H758       H    0.5020339829    0.4717594129   -0.3607412028         -0.3178
H759       H    0.4945489955    0.5504237121   -0.3427845555         -0.3106
N760       N    0.4818485558    0.4087483688   -0.2043057478         -0.3187
C713       C    0.5000000000    0.5000000000    0.1345241452          0.6604
C714       C    0.5328432570    0.5035514334    0.1476305866          0.6647
C715       C    0.5393432374    0.4994553515    0.1824265698          0.6648
C716       C    0.5138329590    0.4892084043    0.2049031044          0.6583
C717       C    0.4829186185    0.4808035277    0.1907516581          0.6495
C718       C    0.4758780872    0.4896251548    0.1577350370          0.6539
C719       C    0.5169413028    0.4912859810    0.2454576908          0.6645
C720       C    0.5660683530    0.5074017552    0.1910597411         -0.3274
H721       H    0.5534571991    0.5140134718    0.1306216865          -0.328
O722       O    0.4550610815    0.5154216229    0.1597183621         -0.3227
H723       H    0.4607785891    0.4756881398    0.2080488161           0.647
H724       H    0.4796031620    0.5254477764    0.1628009539         -0.3136
C725       C    0.4822260328    0.4987754668    0.2664284835         -0.3263
N726       N    0.4896928007    0.5050376998    0.3042374837         -0.3166
N727       N    0.5106685826    0.5231485382    0.2957530743         -0.3016
N728       N    0.5257973685    0.5062763949    0.2687576075         -0.3197
C729       C    0.4781575968    0.5046829802    0.3379178006         -0.3132
H730       H    0.4669392350    0.5205594644    0.2548103372         -0.3079
H731       H    0.4653882007    0.4755250129    0.2648278583           0.653
H732       H    0.5310128010    0.4688792534    0.2564494831          0.6455
C733       C    0.5000000000    0.5000000000    0.3654758548         -0.3146
H734       H    0.5281801293    0.4972526092    0.3607412028         -0.3178
H735       H    0.4497302367    0.5067242163    0.3427845555         -0.3106
N736       N    0.5916814130    0.5158383597    0.2043057478         -0.3187
C689       C    0.5000000000    0.8654758548    0.5000000000          0.6604
C690       C    0.5297068020    0.8523694134    0.4855501515          0.6647
C691       C    0.5330351472    0.8175734302    0.4786255756          0.6648
C692       C    0.5059805188    0.7950968956    0.4835062834          0.6583
C693       C    0.4753276830    0.8092483419    0.4928198249          0.6495
C694       C    0.4740533654    0.8422649630    0.5040343825          0.6539
C695       C    0.5097177062    0.7545423092    0.4836137846          0.6645
C696       C    0.5598959064    0.8089402589    0.4711505000         -0.3274
H697       H    0.5527284500    0.8693783135    0.4834543030          -0.328
O698       O    0.4701331077    0.8402816379    0.5369499877         -0.3227
H699       H    0.4538554415    0.7919511839    0.5002556128           0.647
H700       H    0.4962502856    0.8371990461    0.5323969129         -0.3136
C701       C    0.4842941203    0.7335715165    0.5084106322         -0.3263
N702       N    0.4939473715    0.6957625163    0.5097458947         -0.3166
N703       N    0.5213412642    0.7042469257    0.5139364241         -0.3016
N704       N    0.5251872338    0.7312423925    0.4916035358         -0.3197
C705       C    0.4839882264    0.6620821994    0.5155770341         -0.3132
H706       H    0.4829252316    0.7451896628    0.5349879699         -0.3079
H707       H    0.4576731812    0.7351721417    0.4976671784           0.653
H708       H    0.5097261920    0.7435505169    0.4571549783          0.6455
C709       C    0.5000000000    0.6345241452    0.5000000000         -0.3146
H710       H    0.5224088505    0.6392587972    0.4826936063         -0.3178
H711       H    0.4609946055    0.6572154445    0.5324167146         -0.3106
N712       N    0.5860752966    0.7956942522    0.4646817548         -0.3187
C665       C    0.5000000000    1.1345241452    0.5000000000          0.6604
C666       C    0.4671567430    1.1476305866    0.5035514334          0.6647
C667       C    0.4606567626    1.1824265698    0.4994553515          0.6648
C668       C    0.4861670410    1.2049031044    0.4892084043          0.6583
C669       C    0.5170813815    1.1907516581    0.4808035277          0.6495
C670       C    0.5241219128    1.1577350370    0.4896251548          0.6539
C671       C    0.4830586972    1.2454576908    0.4912859810          0.6645
C672       C    0.4339316470    1.1910597411    0.5074017552         -0.3274
H673       H    0.4465428009    1.1306216865    0.5140134718          -0.328
O674       O    0.5449389185    1.1597183621    0.5154216229         -0.3227
H675       H    0.5392214109    1.2080488161    0.4756881398           0.647
H676       H    0.5203968380    1.1628009539    0.5254477764         -0.3136
C677       C    0.5177739672    1.2664284835    0.4987754668         -0.3263
N678       N    0.5103071993    1.3042374837    0.5050376998         -0.3166
N679       N    0.4893314174    1.2957530743    0.5231485382         -0.3016
N680       N    0.4742026315    1.2687576075    0.5062763949         -0.3197
C681       C    0.5218424032    1.3379178006    0.5046829802         -0.3132
H682       H    0.5330607650    1.2548103372    0.5205594644         -0.3079
H683       H    0.5346117993    1.2648278583    0.4755250129           0.653
H684       H    0.4689871990    1.2564494831    0.4688792534          0.6455
C685       C    0.5000000000    1.3654758548    0.5000000000         -0.3146
H686       H    0.4718198707    1.3607412028    0.4972526092         -0.3178
H687       H    0.5502697633    1.3427845555    0.5067242163         -0.3106
N688       N    0.4083185870    1.2043057478    0.5158383597         -0.3187
C641       C    0.5000000000    0.8654758548    0.0000000000          0.6604
C642       C    0.5109838463    0.8523694134   -0.0311552135          0.6647
C643       C    0.5084864322    0.8175734302   -0.0384209245          0.6648
C644       C    0.4926658294    0.7950968956   -0.0159379809          0.6583
C645       C    0.4773997803    0.8092483419    0.0122273550          0.6495
C646       C    0.4843730853    0.8422649630    0.0211022185          0.6539
C647       C    0.4954004731    0.7545423092   -0.0184874612          0.6645
C648       C    0.5223461348    0.8089402589   -0.0626136048         -0.3274
H649       H    0.5258916855    0.8693783135   -0.0488228446          -0.328
O650       O    0.5047121820    0.8402816379    0.0472771424         -0.3227
H651       H    0.4673465436    0.7919511839    0.0326057879           0.647
H652       H    0.5200959785    0.8371990461    0.0256860268         -0.3136
C653       C    0.4947346648    0.7335715165    0.0170202713         -0.3263
N654       N    0.5025414415    0.6957625163    0.0111873970         -0.3166
N655       N    0.5249774308    0.7042469257   -0.0050795104         -0.3016
N656       N    0.5120215229    0.7312423925   -0.0236723540         -0.3197
C657       C    0.4995525537    0.6620821994    0.0223342937         -0.3132
H658       H    0.5124354835    0.7451896628    0.0368926077         -0.3079
H659       H    0.4682441777    0.7351721417    0.0280814778           0.653
H660       H    0.4768149792    0.7435505169   -0.0373195593          0.6455
C661       C    0.5000000000    0.6345241452    0.0000000000         -0.3146
H662       H    0.5037839835    0.6392587972   -0.0280597454         -0.3178
H663       H    0.4950245503    0.6572154445    0.0504728549         -0.3106
N664       N    0.5364281332    0.7956942522   -0.0856114843         -0.3187
C617       C    0.5000000000    1.1345241452    0.0000000000          0.6604
C618       C    0.4670238643    1.1476305866    0.0019663882          0.6647
C619       C    0.4607285858    1.1824265698   -0.0024378258          0.6648
C620       C    0.4867025354    1.2049031044   -0.0114449434          0.6583
C621       C    0.5179856138    1.1907516581   -0.0183519982          0.6495
C622       C    0.5245933499    1.1577350370   -0.0092016971          0.6539
C623       C    0.4834977895    1.2454576908   -0.0095193969          0.6645
C624       C    0.4336519450    1.1910597411    0.0042129383         -0.3274
H625       H    0.4459302215    1.1306216865    0.0114240355          -0.328
O626       O    0.5441444975    1.1597183621    0.0175669061         -0.3227
H627       H    0.5403462108    1.2080488161   -0.0223957338           0.647
H628       H    0.5191482514    1.1628009539    0.0264000908         -0.3136
C629       C    0.5178123074    1.2664284835   -0.0003675540         -0.3263
N630       N    0.5100527588    1.3042374837    0.0055280029         -0.3166
N631       N    0.4882295166    1.2957530743    0.0226081665         -0.3016
N632       N    0.4739304177    1.2687576075    0.0050273487         -0.3197
C633       C    0.5215916659    1.3379178006    0.0057289480         -0.3132
H634       H    0.5320328001    1.2548103372    0.0221270304         -0.3079
H635       H    0.5357497949    1.2648278583   -0.0227805578           0.653
H636       H    0.4705211631    1.2564494831   -0.0325774902          0.6455
C637       C    0.5000000000    1.3654758548    0.0000000000         -0.3146
H638       H    0.4719847839    1.3607412028   -0.0041006722         -0.3178
H639       H    0.5498878173    1.3427845555    0.0091361846         -0.3106
N640       N    0.4076624747    1.2043057478    0.0114068643         -0.3187
C593       C    0.5000000000    1.0000000000   -0.3654758548          0.6604
C594       C    0.5026330602    1.0329296098   -0.3523694134          0.6647
C595       C    0.5078689960    1.0385521189   -0.3175734302          0.6648
C596       C    0.5131810193    1.0115788611   -0.2950968956          0.6583
C597       C    0.5156758986    0.9796396379   -0.3092483419          0.6495
C598       C    0.5056964820    0.9743669319   -0.3422649630          0.6539
C599       C    0.5117192776    1.0150200000   -0.2545423092          0.6645
C600       C    0.5050436487    1.0662900812   -0.3089402589         -0.3274
H601       H    0.4961969996    1.0551324471   -0.3693783135          -0.328
O602       O    0.4764717073    0.9587234656   -0.3402816379         -0.3227
H603       H    0.5165745477    0.9569341204   -0.2919511839           0.647
H604       H    0.4711961279    0.9847043381   -0.3371990461         -0.3136
C605       C    0.4978898606    0.9823093047   -0.2335715165         -0.3263
N606       N    0.4931292546    0.9908125284   -0.1957625163         -0.3166
N607       N    0.4792459087    1.0147966607   -0.2042469257         -0.3016
N608       N    0.4986424508    1.0265151733   -0.2312423925         -0.3197
C609       C    0.4913275025    0.9794133861   -0.1620821994         -0.3132
H610       H    0.4736381024    0.9713511586   -0.2451896628         -0.3079
H611       H    0.5175940839    0.9614325285   -0.2351721417           0.653
H612       H    0.5363563092    1.0246680658   -0.2435505169          0.6455
C613       C    0.5000000000    1.0000000000   -0.1345241452         -0.3146
H614       H    0.5079522370    1.0271740643   -0.1392587972         -0.3178
H615       H    0.4840229573    0.9518647915   -0.1572154445         -0.3106
N616       N    0.5015293965    1.0930268567   -0.2956942522         -0.3187
C569       C    0.5000000000    1.0000000000    0.1345241452          0.6604
C570       C    0.5328432570    1.0035514334    0.1476305866          0.6647
C571       C    0.5393432374    0.9994553515    0.1824265698          0.6648
C572       C    0.5138329590    0.9892084043    0.2049031044          0.6583
C573       C    0.4829186185    0.9808035277    0.1907516581          0.6495
C574       C    0.4758780872    0.9896251548    0.1577350370          0.6539
C575       C    0.5169413028    0.9912859810    0.2454576908          0.6645
C576       C    0.5660683530    1.0074017552    0.1910597411         -0.3274
H577       H    0.5534571991    1.0140134718    0.1306216865          -0.328
O578       O    0.4550610815    1.0154216229    0.1597183621         -0.3227
H579       H    0.4607785891    0.9756881398    0.2080488161           0.647
H580       H    0.4796031620    1.0254477764    0.1628009539         -0.3136
C581       C    0.4822260328    0.9987754668    0.2664284835         -0.3263
N582       N    0.4896928007    1.0050376998    0.3042374837         -0.3166
N583       N    0.5106685826    1.0231485382    0.2957530743         -0.3016
N584       N    0.5257973685    1.0062763949    0.2687576075         -0.3197
C585       C    0.4781575968    1.0046829802    0.3379178006         -0.3132
H586       H    0.4669392350    1.0205594644    0.2548103372         -0.3079
H587       H    0.4653882007    0.9755250129    0.2648278583           0.653
H588       H    0.5310128010    0.9688792534    0.2564494831          0.6455
C589       C    0.5000000000    1.0000000000    0.3654758548         -0.3146
H590       H    0.5281801293    0.9972526092    0.3607412028         -0.3178
H591       H    0.4497302367    1.0067242163    0.3427845555         -0.3106
N592       N    0.5916814130    1.0158383597    0.2043057478         -0.3187
C545       C    0.8654758548    0.5000000000    0.5000000000          0.6604
C546       C    0.8523694134    0.4763355762    0.5230496693          0.6647
C547       C    0.8175734302    0.4686927343    0.5238336334          0.6648
C548       C    0.7950968956    0.4824555409    0.5000353272          0.6583
C549       C    0.8092483419    0.5016084565    0.4743545129          0.6495
C550       C    0.8422649630    0.5125909986    0.4769571954          0.6539
C551       C    0.7545423092    0.4812898321    0.5035876854          0.6645
C552       C    0.8089402589    0.4525548849    0.5465701010         -0.3274
H553       H    0.8693783135    0.4665598578    0.5439978002          -0.328
O554       O    0.8402816379    0.5448866494    0.4844268963         -0.3227
H555       H    0.7919511839    0.5158827254    0.4566742034           0.647
H556       H    0.8371990461    0.5317498576    0.5074543185         -0.3136
C557       C    0.7335715165    0.5132366930    0.4880750954         -0.3263
N558       N    0.6957625163    0.5112206043    0.4976094319         -0.3166
N559       N    0.7042469257    0.5058769427    0.5248019156         -0.3016
N560       N    0.7312423925    0.4835626129    0.5208496921         -0.3197
C561       C    0.6620821994    0.5200824817    0.4902166053         -0.3132
H562       H    0.7451896628    0.5387044784    0.4957965361         -0.3079
H563       H    0.7351721417    0.5121533953    0.4593884668           0.653
H564       H    0.7435505169    0.4563947145    0.4946265684          0.6455
C565       C    0.6345241452    0.5000000000    0.5000000000         -0.3146
H566       H    0.6392587972    0.4761220461    0.5152154909         -0.3178
H567       H    0.6572154445    0.5437195830    0.4742927588         -0.3106
N568       N    0.7956942522    0.4375947563    0.5690066713         -0.3187
C521       C    1.1345241452    0.5000000000    0.5000000000          0.6604
C522       C    1.1476305866    0.5230496693    0.4763355762          0.6647
C523       C    1.1824265698    0.5238336334    0.4686927343          0.6648
C524       C    1.2049031044    0.5000353272    0.4824555409          0.6583
C525       C    1.1907516581    0.4743545129    0.5016084565          0.6495
C526       C    1.1577350370    0.4769571954    0.5125909986          0.6539
C527       C    1.2454576908    0.5035876854    0.4812898321          0.6645
C528       C    1.1910597411    0.5465701010    0.4525548849         -0.3274
H529       H    1.1306216865    0.5439978002    0.4665598578          -0.328
O530       O    1.1597183621    0.4844268963    0.5448866494         -0.3227
H531       H    1.2080488161    0.4566742034    0.5158827254           0.647
H532       H    1.1628009539    0.5074543185    0.5317498576         -0.3136
C533       C    1.2664284835    0.4880750954    0.5132366930         -0.3263
N534       N    1.3042374837    0.4976094319    0.5112206043         -0.3166
N535       N    1.2957530743    0.5248019156    0.5058769427         -0.3016
N536       N    1.2687576075    0.5208496921    0.4835626129         -0.3197
C537       C    1.3379178006    0.4902166053    0.5200824817         -0.3132
H538       H    1.2548103372    0.4957965361    0.5387044784         -0.3079
H539       H    1.2648278583    0.4593884668    0.5121533953           0.653
H540       H    1.2564494831    0.4946265684    0.4563947145          0.6455
C541       C    1.3654758548    0.5000000000    0.5000000000         -0.3146
H542       H    1.3607412028    0.5152154909    0.4761220461         -0.3178
H543       H    1.3427845555    0.4742927588    0.5437195830         -0.3106
N544       N    1.2043057478    0.5690066713    0.4375947563         -0.3187
C497       C    0.8654758548    0.5000000000    0.0000000000          0.6604
C498       C    0.8523694134    0.4822814753    0.0278809270          0.6647
C499       C    0.8175734302    0.4750247538    0.0304043426          0.6648
C500       C    0.7950968956    0.4829354898    0.0040757558          0.6583
C501       C    0.8092483419    0.4956577452   -0.0253263295          0.6495
C502       C    0.8422649630    0.5069444709   -0.0253234755          0.6539
C503       C    0.7545423092    0.4826194179    0.0078011047          0.6645
C504       C    0.8089402589    0.4645582502    0.0562467388         -0.3274
H505       H    0.8693783135    0.4775940656    0.0505175577          -0.328
O506       O    0.8402816379    0.5400922675   -0.0254939784         -0.3227
H507       H    0.7919511839    0.5054754739   -0.0458192624           0.647
H508       H    0.8371990461    0.5326131378   -0.0000597477         -0.3136
C509       C    0.7335715165    0.5101338173   -0.0146532978         -0.3263
N510       N    0.6957625163    0.5103681871   -0.0049109544         -0.3166
N511       N    0.7042469257    0.5114320370    0.0227811766         -0.3016
N512       N    0.7312423925    0.4888073939    0.0240753593         -0.3197
C513       C    0.6620821994    0.5172888052   -0.0141463104         -0.3132
H514       H    0.7451896628    0.5366953541   -0.0130060271         -0.3079
H515       H    0.7351721417    0.5024716667   -0.0423189380           0.653
H516       H    0.7435505169    0.4563295882    0.0048155810          0.6455
C517       C    0.6345241452    0.5000000000    0.0000000000         -0.3146
H518       H    0.6392587972    0.4802690790    0.0203066147         -0.3178
H519       H    0.6572154445    0.5366221805   -0.0350867508         -0.3106
N520       N    0.7956942522    0.4551687142    0.0815260139         -0.3187
C473       C    1.1345241452    0.5000000000    0.0000000000          0.6604
C474       C    1.1476305866    0.5204709996   -0.0259274061          0.6647
C475       C    1.1824265698    0.5204580559   -0.0336103394          0.6648
C476       C    1.2049031044    0.4982155073   -0.0174535062          0.6583
C477       C    1.1907516581    0.4746596400    0.0042596122          0.6495
C478       C    1.1577350370    0.4783873442    0.0149129876          0.6539
C479       C    1.2454576908    0.5016278059   -0.0189813624          0.6645
C480       C    1.1910597411    0.5413981639   -0.0520192779         -0.3274
H481       H    1.1306216865    0.5402922658   -0.0378230465          -0.328
O482       O    1.1597183621    0.4891663152    0.0462597462         -0.3227
H483       H    1.2080488161    0.4585551405    0.0202906194           0.647
H484       H    1.1628009539    0.5107070644    0.0308055043         -0.3136
C485       C    1.2664284835    0.4895122541    0.0144021032         -0.3263
N486       N    1.3042374837    0.4987860728    0.0114080304         -0.3166
N487       N    1.2957530743    0.5252776885    0.0032729097         -0.3016
N488       N    1.2687576075    0.5190324413   -0.0185111733         -0.3197
C489       C    1.3379178006    0.4923522281    0.0209888653         -0.3132
H490       H    1.2548103372    0.4998334529    0.0389317097         -0.3079
H491       H    1.2648278583    0.4608679772    0.0162998907           0.653
H492       H    1.2564494831    0.4901330107   -0.0428128160          0.6455
C493       C    1.3654758548    0.5000000000    0.0000000000         -0.3146
H494       H    1.3607412028    0.5126569244   -0.0253272602         -0.3178
H495       H    1.3427845555    0.4789657882    0.0461500392         -0.3106
N496       N    1.2043057478    0.5621621397   -0.0692257431         -0.3187
C449       C    1.0000000000    0.5000000000   -0.1345241452          0.6604
C450       C    1.0328432570    0.4964485666   -0.1476305866          0.6647
C451       C    1.0393432374    0.5005446485   -0.1824265698          0.6648
C452       C    1.0138329590    0.5107915957   -0.2049031044          0.6583
C453       C    0.9829186185    0.5191964723   -0.1907516581          0.6495
C454       C    0.9758780872    0.5103748452   -0.1577350370          0.6539
C455       C    1.0169413028    0.5087140190   -0.2454576908          0.6645
C456       C    1.0660683530    0.4925982448   -0.1910597411         -0.3274
H457       H    1.0534571991    0.4859865282   -0.1306216865          -0.328
O458       O    0.9550610815    0.4845783771   -0.1597183621         -0.3227
H459       H    0.9607785891    0.5243118602   -0.2080488161           0.647
H460       H    0.9796031620    0.4745522236   -0.1628009539         -0.3136
C461       C    0.9822260328    0.5012245332   -0.2664284835         -0.3263
N462       N    0.9896928007    0.4949623002   -0.3042374837         -0.3166
N463       N    1.0106685826    0.4768514618   -0.2957530743         -0.3016
N464       N    1.0257973685    0.4937236051   -0.2687576075         -0.3197
C465       C    0.9781575968    0.4953170198   -0.3379178006         -0.3132
H466       H    0.9669392350    0.4794405356   -0.2548103372         -0.3079
H467       H    0.9653882007    0.5244749871   -0.2648278583           0.653
H468       H    1.0310128010    0.5311207466   -0.2564494831          0.6455
C469       C    1.0000000000    0.5000000000   -0.3654758548         -0.3146
H470       H    1.0281801293    0.5027473908   -0.3607412028         -0.3178
H471       H    0.9497302367    0.4932757837   -0.3427845555         -0.3106
N472       N    1.0916814130    0.4841616403   -0.2043057478         -0.3187
C425       C    1.0000000000    0.5000000000    0.1345241452          0.6604
C426       C    0.9671567430    0.4964485666    0.1476305866          0.6647
C427       C    0.9606567626    0.5005446485    0.1824265698          0.6624
C428       C    0.9861670410    0.5107915957    0.2049031044          0.6583
C429       C    1.0170813815    0.5191964723    0.1907516581          0.6495
C430       C    1.0241219128    0.5103748452    0.1577350370          0.6539
C431       C    0.9830586972    0.5087140190    0.2454576908          0.6645
C432       C    0.9339316470    0.4925982448    0.1910597411         -0.3274
H433       H    0.9465428009    0.4859865282    0.1306216865          -0.328
O434       O    1.0449389185    0.4845783771    0.1597183621         -0.3227
H435       H    1.0392214109    0.5243118602    0.2080488161           0.647
H436       H    1.0203968380    0.4745522236    0.1628009539         -0.3136
C437       C    1.0177739672    0.5012245332    0.2664284835         -0.3263
N438       N    1.0103071993    0.4949623002    0.3042374837         -0.3166
N439       N    0.9893314174    0.4768514618    0.2957530743         -0.3016
N440       N    0.9742026315    0.4937236051    0.2687576075         -0.3197
C441       C    1.0218424032    0.4953170198    0.3379178006         -0.3132
H442       H    1.0330607650    0.4794405356    0.2548103372         -0.3079
H443       H    1.0346117993    0.5244749871    0.2648278583           0.653
H444       H    0.9689871990    0.5311207466    0.2564494831          0.6455
C445       C    1.0000000000    0.5000000000    0.3654758548         -0.3146
H446       H    0.9718198707    0.5027473908    0.3607412028         -0.3178
H447       H    1.0502697633    0.4932757837    0.3427845555         -0.3106
N448       N    0.9083185870    0.4841616403    0.2043057478         -0.3187
C401       C    1.0000000000   -0.1345241452    0.5000000000          0.6604
C402       C    1.0328432570   -0.1476305866    0.5035514334          0.6647
C403       C    1.0393432374   -0.1824265698    0.4994553515          0.6648
C404       C    1.0138329590   -0.2049031044    0.4892084043          0.6583
C405       C    0.9829186185   -0.1907516581    0.4808035277          0.6495
C406       C    0.9758780872   -0.1577350370    0.4896251548          0.6539
C407       C    1.0169413028   -0.2454576908    0.4912859810          0.6645
C408       C    1.0660683530   -0.1910597411    0.5074017552         -0.3274
H409       H    1.0534571991   -0.1306216865    0.5140134718          -0.328
O410       O    0.9550610815   -0.1597183621    0.5154216229         -0.3227
H411       H    0.9607785891   -0.2080488161    0.4756881398           0.647
H412       H    0.9796031620   -0.1628009539    0.5254477764         -0.3136
C413       C    0.9822260328   -0.2664284835    0.4987754668         -0.3263
N414       N    0.9896928007   -0.3042374837    0.5050376998         -0.3166
N415       N    1.0106685826   -0.2957530743    0.5231485382         -0.3016
N416       N    1.0257973685   -0.2687576075    0.5062763949         -0.3197
C417       C    0.9781575968   -0.3379178006    0.5046829802         -0.3132
H418       H    0.9669392350   -0.2548103372    0.5205594644         -0.3079
H419       H    0.9653882007   -0.2648278583    0.4755250129           0.653
H420       H    1.0310128010   -0.2564494831    0.4688792534          0.6455
C421       C    1.0000000000   -0.3654758548    0.5000000000         -0.3146
H422       H    1.0281801293   -0.3607412028    0.4972526092         -0.3178
H423       H    0.9497302367   -0.3427845555    0.5067242163         -0.3106
N424       N    1.0916814130   -0.2043057478    0.5158383597         -0.3187
C377       C    1.0000000000    0.3654758548    0.5000000000          0.6604
C378       C    0.9822833417    0.3523694134    0.4721178870          0.6647
C379       C    0.9750267892    0.3175734302    0.4695939856          0.6648
C380       C    0.9829357627    0.2950968956    0.4959231019          0.6583
C381       C    0.9956560498    0.3092483419    0.5253260388          0.6495
C382       C    1.0069427757    0.3422649630    0.5253239403          0.6539
C383       C    0.9826199401    0.2545423092    0.4921977319          0.6645
C384       C    0.9645620155    0.3089402589    0.4437508888         -0.3274
H385       H    0.9775974473    0.3693783135    0.4494809426          -0.328
O386       O    1.0400905609    0.3402816379    0.5254966621         -0.3227
H387       H    1.0054724067    0.2919511839    0.5458196288           0.647
H388       H    1.0326131337    0.3371990461    0.5000619309         -0.3136
C389       C    1.0101328364    0.2335715165    0.5146539761         -0.3263
N390       N    1.0103678583    0.1957625163    0.5049116484         -0.3166
N391       N    1.0114335619    0.2042469257    0.4772195888         -0.3016
N392       N    0.9888090055    0.2312423925    0.4759238915         -0.3197
C393       C    1.0172878582    0.1620821994    0.5141474677         -0.3132
H394       H    1.0366944834    0.2451896628    0.5130084835         -0.3079
H395       H    1.0024688338    0.2351721417    0.5423191033           0.653
H396       H    0.9563299106    0.2435505169    0.4951814957          0.6455
C397       C    1.0000000000    0.1345241452    0.5000000000         -0.3146
H398       H    0.9802704384    0.1392587972    0.4796920646         -0.3178
H399       H    1.0366198317    0.1572154445    0.5350892023         -0.3106
N400       N    0.9551741717    0.2956942522    0.4184709852         -0.3187
C353       C    0.8654758548   -0.0000000000    0.5000000000          0.6604
C354       C    0.8523694134    0.0325430363    0.4943217086          0.6647
C355       C    0.8175734302    0.0392954664    0.4979867217          0.6648
C356       C    0.7950968956    0.0145050252    0.5098698296          0.6583
C357       C    0.8092483419   -0.0157977643    0.5202659514          0.6495
C358       C    0.8422649630   -0.0233966988    0.5119205107          0.6539
C359       C    0.7545423092    0.0174717842    0.5075946445          0.6645
C360       C    0.8089402589    0.0654476809    0.4883203463         -0.3274
H361       H    0.8693783135    0.0524335134    0.4825421594          -0.328
O362       O    0.8402816379   -0.0458461202    0.4875313949         -0.3227
H363       H    0.7919511839   -0.0375585623    0.5268093270           0.647
H364       H    0.8371990461   -0.0220074816    0.4759315336         -0.3136
C365       C    0.7335715165   -0.0176568176    0.5023770110         -0.3263
N366       N    0.6957625163   -0.0106127934    0.4956427770         -0.3166
N367       N    0.7042469257    0.0091416905    0.4762070815         -0.3016
N368       N    0.7312423925    0.0253349564    0.4920603942         -0.3197
C369       C    0.6620821994   -0.0221005617    0.4967463781         -0.3132
H370       H    0.7451896628   -0.0343269651    0.4816324955         -0.3079
H371       H    0.7351721417   -0.0329480937    0.5266725471           0.653
H372       H    0.7435505169    0.0329696700    0.5290395515          0.6455
C373       C    0.6345241452   -0.0000000000    0.5000000000         -0.3146
H374       H    0.6392587972    0.0282991038    0.5009102579         -0.3178
H375       H    0.6572154445   -0.0506004832    0.4965568489         -0.3106
N376       N    0.7956942522    0.0904583341    0.4782370748         -0.3187
C329       C    1.3654758548   -0.0000000000    0.5000000000          0.6604
C330       C    1.3523694134    0.0186137744    0.5272913835          0.6647
C331       C    1.3175734302    0.0180652777    0.5349547237          0.6648
C332       C    1.2950968956   -0.0029968518    0.5172866472          0.6583
C333       C    1.3092483419   -0.0249817712    0.4939842499          0.6495
C334       C    1.3422649630   -0.0205204787    0.4836166535          0.6539
C335       C    1.2545423092    0.0003006371    0.5190486610          0.6645
C336       C    1.3089402589    0.0376711387    0.5547786323         -0.3274
H337       H    1.3693783135    0.0375575638    0.5405398438          -0.328
O338       O    1.3402816379   -0.0075825183    0.4530975665         -0.3227
H339       H    1.2919511839   -0.0399295556    0.4768695826           0.647
H340       H    1.3371990461    0.0128284975    0.4700158379         -0.3136
C341       C    1.2335715165   -0.0094582474    0.4849018231         -0.3263
N342       N    1.1957625163   -0.0004157094    0.4885350987         -0.3166
N343       N    1.2042469257    0.0254443514    0.4984971841         -0.3016
N344       N    1.2312423925    0.0176957084    0.5197929094         -0.3197
C345       C    1.1620821994   -0.0061660130    0.4785290623         -0.3132
H346       H    1.2451896628    0.0025478244    0.4611513920         -0.3079
H347       H    1.2351721417   -0.0379005429    0.4810118328           0.653
H348       H    1.2435505169   -0.0128275071    0.5420208252          0.6455
C349       C    1.1345241452   -0.0000000000    0.5000000000         -0.3146
H350       H    1.1392587972    0.0108605457    0.5261479711         -0.3178
H351       H    1.1572154445   -0.0177658776    0.4524959183         -0.3106
N352       N    1.2956942522    0.0571851217    0.5733907146         -0.3187
C305       C    0.0000000000   -0.1345241452    0.0000000000          0.6604
C306       C    0.0223861486   -0.1476305866   -0.0242930558          0.6647
C307       C    0.0229583664   -0.1824265698   -0.0319546613          0.6648
C308       C   -0.0004500698   -0.2049031044   -0.0175387209          0.6583
C309       C   -0.0255911713   -0.1907516581    0.0023173467          0.6495
C310       C   -0.0226856429   -0.1577350370    0.0132236793          0.6539
C311       C    0.0030686782   -0.2454576908   -0.0188022627          0.6645
C312       C    0.0452396627   -0.1910597411   -0.0487153587         -0.3274
H313       H    0.0430558069   -0.1306216865   -0.0346445814          -0.328
O314       O   -0.0143253125   -0.1597183621    0.0453003120         -0.3227
H315       H   -0.0428698025   -0.2080488161    0.0170752937           0.647
H316       H    0.0083298540   -0.1628009539    0.0315314741         -0.3136
C317       C   -0.0115541348   -0.2664284835    0.0135615397         -0.3263
N318       N   -0.0020792248   -0.3042374837    0.0112824465         -0.3166
N319       N    0.0249550131   -0.2957530743    0.0051885255         -0.3016
N320       N    0.0203869561   -0.2687576075   -0.0170079210         -0.3197
C321       C   -0.0092240497   -0.3379178006    0.0203454612         -0.3132
H322       H   -0.0031310602   -0.2548103372    0.0388059560         -0.3079
H323       H   -0.0402597534   -0.2648278583    0.0132722984           0.653
H324       H   -0.0065777549   -0.2564494831   -0.0434399336          0.6455
C325       C    0.0000000000   -0.3654758548    0.0000000000         -0.3146
H326       H    0.0145490614   -0.3607412028   -0.0242897644         -0.3178
H327       H   -0.0244878589   -0.3427845555    0.0444140626         -0.3106
N328       N    0.0672537593   -0.2043057478   -0.0642904891         -0.3187
C281       C    0.0000000000    0.1345241452    0.0000000000          0.6604
C282       C   -0.0292736367    0.1476305866   -0.0153083768          0.6647
C283       C   -0.0323990242    0.1824265698   -0.0223268942          0.6648
C284       C   -0.0054979166    0.2049031044   -0.0166607985          0.6583
C285       C    0.0248708512    0.1907516581   -0.0064590172          0.6495
C286       C    0.0258182164    0.1577350370    0.0047878795          0.6539
C287       C   -0.0092366496    0.2454576908   -0.0166621179          0.6645
C288       C   -0.0590308326    0.1910597411   -0.0305806157         -0.3274
H289       H   -0.0522245290    0.1306216865   -0.0180734086          -0.328
O290       O    0.0287787671    0.1597183621    0.0378036429         -0.3227
H291       H    0.0461175684    0.2080488161    0.0015985944           0.647
H292       H    0.0028051768    0.1628009539    0.0324923269         -0.3136
C293       C    0.0154544245    0.2664284835    0.0088642063         -0.3263
N294       N    0.0057663988    0.3042374837    0.0099179343         -0.3166
N295       N   -0.0217378579    0.2957530743    0.0133093579         -0.3016
N296       N   -0.0249321740    0.2687576075   -0.0091260099         -0.3197
C297       C    0.0155516025    0.3379178006    0.0160364754         -0.3132
H298       H    0.0160491697    0.2548103372    0.0354701270         -0.3079
H299       H    0.0423767855    0.2648278583   -0.0010998630           0.653
H300       H   -0.0084750182    0.2564494831   -0.0431099612          0.6455
C301       C   -0.0000000000    0.3654758548    0.0000000000         -0.3146
H302       H   -0.0218956342    0.3607412028   -0.0179512965         -0.3178
H303       H    0.0380453436    0.3427845555    0.0335382769         -0.3106
N304       N   -0.0850108511    0.2043057478   -0.0378086011         -0.3187
C257       C   -0.1345241452   -0.0000000000    0.0000000000          0.6604
C258       C   -0.1476305866   -0.0104678086    0.0313323665          0.6647
C259       C   -0.1824265698   -0.0169012682    0.0355321559          0.6648
C260       C   -0.2049031044   -0.0155769188    0.0080727254          0.6583
C261       C   -0.1907516581   -0.0103247935   -0.0235303375          0.6495
C262       C   -0.1577350370    0.0006291501   -0.0262508716          0.6539
C263       C   -0.2454576908   -0.0149847860    0.0117642704          0.6645
C264       C   -0.1910597411   -0.0208231840    0.0631364258         -0.3274
H265       H   -0.1306216865   -0.0095548753    0.0544311849          -0.328
O266       O   -0.1597183621    0.0327564424   -0.0344143623         -0.3227
H267       H   -0.2080488161   -0.0057417456   -0.0457866572           0.647
H268       H   -0.1628009539    0.0316351536   -0.0079270034         -0.3136
C269       C   -0.2664284835    0.0062988067   -0.0166654860         -0.3263
N270       N   -0.3042374837    0.0088769213   -0.0072675336         -0.3166
N271       N   -0.2957530743    0.0165910011    0.0193497327         -0.3016
N272       N   -0.2687576075   -0.0050529226    0.0260646375         -0.3197
C273       C   -0.3379178006    0.0133647254   -0.0178998602         -0.3132
H274       H   -0.2548103372    0.0324730321   -0.0214757524         -0.3079
H275       H   -0.2648278583   -0.0078122327   -0.0416649813           0.653
H276       H   -0.2564494831   -0.0412182307    0.0152102645          0.6455
C277       C   -0.3654758548   -0.0000000000    0.0000000000         -0.3146
H278       H   -0.3607412028   -0.0142483066    0.0244673988         -0.3178
H279       H   -0.3427845555    0.0270743001   -0.0428864368         -0.3106
N280       N   -0.2043057478   -0.0238358235    0.0899343574         -0.3187
C233       C    0.1345241452   -0.0000000000    0.0000000000          0.6604
C234       C    0.1476305866    0.0328396171   -0.0035849347          0.6647
C235       C    0.1824265698    0.0383082441   -0.0089813920          0.6648
C236       C    0.2049031044    0.0111925549   -0.0135105888          0.6583
C237       C    0.1907516581   -0.0208054921   -0.0150801074          0.6495
C238       C    0.1577350370   -0.0257871871   -0.0049522793          0.6539
C239       C    0.2454576908    0.0146745551   -0.0121490453          0.6645
C240       C    0.1910597411    0.0661163536   -0.0069599599         -0.3274
H241       H    0.1306216865    0.0552194133    0.0022058838          -0.328
O242       O    0.1597183621   -0.0405783411    0.0247129740         -0.3227
H243       H    0.2080488161   -0.0435275063   -0.0153212863           0.647
H244       H    0.1628009539   -0.0144556762    0.0292344617         -0.3136
C245       C    0.2664284835   -0.0176222186    0.0026212213         -0.3263
N246       N    0.3042374837   -0.0089847852    0.0071337515         -0.3166
N247       N    0.2957530743    0.0153910831    0.0203171857         -0.3016
N248       N    0.2687576075    0.0265433548    0.0005896360         -0.3197
C249       C    0.3379178006   -0.0203270107    0.0092646382         -0.3132
H250       H    0.2548103372   -0.0278739331    0.0271799487         -0.3079
H251       H    0.2648278583   -0.0390604876   -0.0164705785           0.653
H252       H    0.2564494831    0.0236055883   -0.0370549712          0.6455
C253       C    0.3654758548   -0.0000000000    0.0000000000         -0.3146
H254       H    0.3607412028    0.0269325462   -0.0087353191         -0.3178
H255       H    0.3427845555   -0.0476526744    0.0173633756         -0.3106
N256       N    0.2043057478    0.0929436325   -0.0042209375         -0.3187
C209       C    0.0000000000    0.0000000000   -0.3654758548          0.6604
C210       C   -0.0322032782   -0.0073648544   -0.3523694134          0.6647
C211       C   -0.0391373597   -0.0040563583   -0.3175734302          0.6648
C212       C   -0.0149991996    0.0091012803   -0.2950968956          0.6583
C213       C    0.0147212490    0.0210609347   -0.3092483419          0.6495
C214       C    0.0227443606    0.0131224293   -0.3422649630          0.6539
C215       C   -0.0178434840    0.0066747246   -0.2545423092          0.6645
C216       C   -0.0647508545   -0.0150711676   -0.3089402589         -0.3274
H217       H   -0.0514535109   -0.0201639715   -0.3693783135          -0.328
O218       O    0.0464330892   -0.0100648436   -0.3402816379         -0.3227
H219       H    0.0361118731    0.0287283525   -0.2919511839           0.647
H220       H    0.0232306945   -0.0228900668   -0.3371990461         -0.3136
C221       C    0.0175091197    0.0032930410   -0.2335715165         -0.3263
N222       N    0.0108252476   -0.0037987880   -0.1957625163         -0.3166
N223       N   -0.0078905801   -0.0242365885   -0.2042469257         -0.3016
N224       N   -0.0248872445   -0.0092478332   -0.2312423925         -0.3197
C225       C    0.0222399807   -0.0020986045   -0.1620821994         -0.3132
H226       H    0.0352366659   -0.0165554563   -0.2451896628         -0.3079
H227       H    0.0315147782    0.0283517267   -0.2351721417           0.653
H228       H   -0.0344368222    0.0272836942   -0.2435505169          0.6455
C229       C   -0.0000000000    0.0000000000   -0.1345241452         -0.3146
H230       H   -0.0283081158   -0.0005642915   -0.1392587972         -0.3178
H231       H    0.0507111191   -0.0008041068   -0.1572154445         -0.3106
N232       N   -0.0892026315   -0.0264428754   -0.2956942522         -0.3187
C185       C    0.0000000000    0.0000000000    0.1345241452          0.6604
C186       C   -0.0327899895    0.0040135767    0.1476305866          0.6647
C187       C   -0.0381876620    0.0094810043    0.1824265698          0.6648
C188       C   -0.0110151260    0.0136556323    0.2049031044          0.6583
C189       C    0.0210006921    0.0148070616    0.1907516581          0.6495
C190       C    0.0258496734    0.0046150271    0.1577350370          0.6539
C191       C   -0.0145146135    0.0123396865    0.2454576908          0.6645
C192       C   -0.0660198028    0.0078229715    0.1910597411         -0.3274
H193       H   -0.0552435156   -0.0014844250    0.1306216865          -0.328
O194       O    0.0402520809   -0.0252408960    0.1597183621         -0.3227
H195       H    0.0437239181    0.0147514272    0.2080488161           0.647
H196       H    0.0140725853   -0.0294207863    0.1628009539         -0.3136
C197       C    0.0175864771   -0.0028511774    0.2664284835         -0.3263
N198       N    0.0088908384   -0.0072505013    0.3042374837         -0.3166
N199       N   -0.0156551512   -0.0201144156    0.2957530743         -0.3016
N200       N   -0.0265487922   -0.0002428790    0.2687576075         -0.3197
C201       C    0.0202042628   -0.0095293572    0.3379178006         -0.3132
H202       H    0.0275165333   -0.0275417165    0.2548103372         -0.3079
H203       H    0.0392722924    0.0159589691    0.2648278583           0.653
H204       H   -0.0231195660    0.0373601440    0.2564494831          0.6455
C205       C    0.0000000000    0.0000000000    0.3654758548         -0.3146
H206       H   -0.0268161487    0.0090863642    0.3607412028         -0.3178
H207       H    0.0474218104   -0.0179843289    0.3427845555         -0.3106
N208       N   -0.0928805699    0.0054345980    0.2043057478         -0.3187
loop_
_geom_bond_atom_site_label_1
_geom_bond_atom_site_label_2
_geom_bond_distance
_geom_bond_site_symmetry_2
_ccdc_geom_bond_type
Zn1          O5 1.942       .   S
Zn1          O6 1.922       .   S
Zn1         O10 1.922       .   S
Zn1         O17 1.922       .   S
Zn2          O5 1.942       .   S
Zn2          O7 1.922       .   S
Zn2          O9 1.922       .   S
Zn2         O13 1.922       .   S
Zn3          O5 1.942       .   S
Zn3          O8 1.922       .   S
Zn3         O11 1.922       .   S
Zn3         O14 1.922       .   S
Zn4          O5 1.942       .   S
Zn4         O12 1.922       .   S
Zn4         O15 1.922       .   S
Zn4         O16 1.922       .   S
O6          C18 1.304       .   A
O7          C19 1.304       .   A
O8          C20 1.304       .   A
O9          C18 1.304       .   A
O10         C20 1.304       .   A
O11         C19 1.304       .   A
O12         C21 1.304       .   A
O13         C22 1.304       .   A
O14         C21 1.304       .   A
O15         C22 1.304       .   A
O16         C23 1.304       .   A
O17         C23 1.304       .   A
C18        C281 1.540       .   S
C19        C185 1.540       .   S
C20        C257 1.540       .   S
C21        C305 1.540       .   S
C22        C233 1.540       .   S
C23        C229 1.540       .   S
Zn24        O28 1.942       .   S
Zn24        O29 1.922       .   S
Zn24        O33 1.922       .   S
Zn24        O40 1.922       .   S
Zn25        O28 1.942       .   S
Zn25        O30 1.922       .   S
Zn25        O32 1.922       .   S
Zn25        O36 1.922       .   S
Zn26        O28 1.942       .   S
Zn26        O31 1.922       .   S
Zn26        O34 1.922       .   S
Zn26        O37 1.922       .   S
Zn27        O28 1.942       .   S
Zn27        O35 1.922       .   S
Zn27        O38 1.922       .   S
Zn27        O39 1.922       .   S
O29         C41 1.304       .   A
O30         C42 1.304       .   A
O31         C43 1.304       .   A
O32         C41 1.304       .   A
O33         C43 1.304       .   A
O34         C42 1.304       .   A
O35         C44 1.304       .   A
O36         C45 1.304       .   A
O37         C44 1.304       .   A
O38         C45 1.304       .   A
O39         C46 1.304       .   A
O40         C46 1.304       .   A
C41        C205 1.540   1_655   S
C42        C349 1.540       .   S
C43        C397 1.540       .   S
C44        C209 1.540   1_656   S
C45        C401 1.540       .   S
C46        C353 1.540       .   S
Zn47        O51 1.942       .   S
Zn47        O52 1.922       .   S
Zn47        O56 1.922       .   S
Zn47        O63 1.922       .   S
Zn48        O51 1.942       .   S
Zn48        O53 1.922       .   S
Zn48        O55 1.922       .   S
Zn48        O59 1.922       .   S
Zn49        O51 1.942       .   S
Zn49        O54 1.922       .   S
Zn49        O57 1.922       .   S
Zn49        O60 1.922       .   S
Zn50        O51 1.942       .   S
Zn50        O58 1.922       .   S
Zn50        O61 1.922       .   S
Zn50        O62 1.922       .   S
O52         C64 1.304       .   A
O53         C65 1.304       .   A
O54         C66 1.304       .   A
O55         C64 1.304       .   A
O56         C66 1.304       .   A
O57         C65 1.304       .   A
O58         C67 1.304       .   A
O59         C68 1.304       .   A
O60         C67 1.304       .   A
O61         C68 1.304       .   A
O62         C69 1.304       .   A
O63         C69 1.304       .   A
C64        C301 1.540   1_655   S
C65        C425 1.540       .   S
C66        C473 1.540       .   S
C67        C325 1.540   1_665   S
C68        C497 1.540       .   S
C69        C449 1.540       .   S
Zn70        O74 1.942       .   S
Zn70        O75 1.922       .   S
Zn70        O79 1.922       .   S
Zn70        O86 1.922       .   S
Zn71        O74 1.942       .   S
Zn71        O76 1.922       .   S
Zn71        O78 1.922       .   S
Zn71        O82 1.922       .   S
Zn72        O74 1.942       .   S
Zn72        O77 1.922       .   S
Zn72        O80 1.922       .   S
Zn72        O83 1.922       .   S
Zn73        O74 1.942       .   S
Zn73        O81 1.922       .   S
Zn73        O84 1.922       .   S
Zn73        O85 1.922       .   S
O75         C87 1.304       .   A
O76         C88 1.304       .   A
O77         C89 1.304       .   A
O78         C87 1.304       .   A
O79         C89 1.304       .   A
O80         C88 1.304       .   A
O81         C90 1.304       .   A
O82         C91 1.304       .   A
O83         C90 1.304       .   A
O84         C91 1.304       .   A
O85         C92 1.304       .   A
O86         C92 1.304       .   A
C87        C377 1.540       .   S
C88        C445 1.540       .   S
C89        C545 1.540       .   S
C90        C421 1.540   1_565   S
C91        C521 1.540       .   S
C92        C469 1.540   1_556   S
Zn93        O97 1.942       .   S
Zn93        O98 1.922       .   S
Zn93       O102 1.922       .   S
Zn93       O109 1.922       .   S
Zn94        O97 1.942       .   S
Zn94        O99 1.922       .   S
Zn94       O101 1.922       .   S
Zn94       O105 1.922       .   S
Zn95        O97 1.942       .   S
Zn95       O100 1.922       .   S
Zn95       O103 1.922       .   S
Zn95       O106 1.922       .   S
Zn96        O97 1.942       .   S
Zn96       O104 1.922       .   S
Zn96       O107 1.922       .   S
Zn96       O108 1.922       .   S
O98        C110 1.304       .   A
O99        C111 1.304       .   A
O100       C112 1.304       .   A
O101       C110 1.304       .   A
O102       C112 1.304       .   A
O103       C111 1.304       .   A
O104       C113 1.304       .   A
O105       C114 1.304       .   A
O106       C113 1.304       .   A
O107       C114 1.304       .   A
O108       C115 1.304       .   A
O109       C115 1.304       .   A
C110       C617 1.540       .   S
C111       C613 1.540       .   S
C112       C277 1.540   1_665   S
C113       C641 1.540       .   S
C114       C253 1.540   1_565   S
C115       C569 1.540       .   S
Zn116      O120 1.942       .   S
Zn116      O121 1.922       .   S
Zn116      O125 1.922       .   S
Zn116      O132 1.922       .   S
Zn117      O120 1.942       .   S
Zn117      O122 1.922       .   S
Zn117      O124 1.922       .   S
Zn117      O128 1.922       .   S
Zn118      O120 1.942       .   S
Zn118      O123 1.922       .   S
Zn118      O126 1.922       .   S
Zn118      O129 1.922       .   S
Zn119      O120 1.942       .   S
Zn119      O127 1.922       .   S
Zn119      O130 1.922       .   S
Zn119      O131 1.922       .   S
O121       C133 1.304       .   A
O122       C134 1.304       .   A
O123       C135 1.304       .   A
O124       C133 1.304       .   A
O125       C135 1.304       .   A
O126       C134 1.304       .   A
O127       C136 1.304       .   A
O128       C137 1.304       .   A
O129       C136 1.304       .   A
O130       C137 1.304       .   A
O131       C138 1.304       .   A
O132       C138 1.304       .   A
C133       C329 1.540   1_465   S
C134       C589 1.540       .   S
C135       C665 1.540       .   S
C136       C373 1.540   1_565   S
C137       C689 1.540       .   S
C138       C593 1.540   1_556   S
Zn139      O143 1.942       .   S
Zn139      O144 1.922       .   S
Zn139      O148 1.922       .   S
Zn139      O155 1.922       .   S
Zn140      O143 1.942       .   S
Zn140      O145 1.922       .   S
Zn140      O147 1.922       .   S
Zn140      O151 1.922       .   S
Zn141      O143 1.942       .   S
Zn141      O146 1.922       .   S
Zn141      O149 1.922       .   S
Zn141      O152 1.922       .   S
Zn142      O143 1.942       .   S
Zn142      O150 1.922       .   S
Zn142      O153 1.922       .   S
Zn142      O154 1.922       .   S
O144       C156 1.304       .   A
O145       C157 1.304       .   A
O146       C158 1.304       .   A
O147       C156 1.304       .   A
O148       C158 1.304       .   A
O149       C157 1.304       .   A
O150       C159 1.304       .   A
O151       C160 1.304       .   A
O152       C159 1.304       .   A
O153       C160 1.304       .   A
O154       C161 1.304       .   A
O155       C161 1.304       .   A
C156       C493 1.540   1_455   S
C157       C637 1.540   1_545   S
C158       C737 1.540       .   S
C159       C517 1.540       .   S
C160       C713 1.540       .   S
C161       C661 1.540       .   S
Zn162      O166 1.942       .   S
Zn162      O167 1.922       .   S
Zn162      O171 1.922       .   S
Zn162      O178 1.922       .   S
Zn163      O166 1.942       .   S
Zn163      O168 1.922       .   S
Zn163      O170 1.922       .   S
Zn163      O174 1.922       .   S
Zn164      O166 1.942       .   S
Zn164      O169 1.922       .   S
Zn164      O172 1.922       .   S
Zn164      O175 1.922       .   S
Zn165      O166 1.942       .   S
Zn165      O173 1.922       .   S
Zn165      O176 1.922       .   S
Zn165      O177 1.922       .   S
O167       C179 1.304       .   A
O168       C180 1.304       .   A
O169       C181 1.304       .   A
O170       C179 1.304       .   A
O171       C181 1.304       .   A
O172       C180 1.304       .   A
O173       C182 1.304       .   A
O174       C183 1.304       .   A
O175       C182 1.304       .   A
O176       C183 1.304       .   A
O177       C184 1.304       .   A
O178       C184 1.304       .   A
C179       C733 1.540       .   S
C180       C541 1.540   1_455   S
C181       C685 1.540   1_545   S
C182       C757 1.540   1_556   S
C183       C709 1.540       .   S
C184       C565 1.540       .   S
C737       C738 0.032       .   A
C737       C742 0.032       .   A
C738       C739 0.032       .   A
C738       H745 0.026       .   A
C739       C740 0.032       .   A
C739       C744 0.026       .   A
C740       C741 0.032       .   A
C740       C743 0.037       .   A
C741       C742 0.031       .   A
C741       H747 0.026       .   A
C742       O746 0.030       .   A
C743       C749 0.037       .   A
C743       N752 0.026       .   A
C743       H756 0.026       .   A
C744       N760 0.027       .   A
O746       H748 0.024       .   A
C749       N750 0.035       .   A
C749       H754 0.026       .   A
C749       H755 0.026       .   A
N750       N751 0.026       .   A
N750       C753 0.032       .   A
N751       N752 0.032       .   A
C753       C757 0.032       .   A
C753       H759 0.026       .   A
C757       H758 0.026       .   A
C713       C714 0.032       .   A
C713       C718 0.032       .   A
C714       C715 0.032       .   A
C714       H721 0.026       .   A
C715       C716 0.032       .   A
C715       C720 0.026       .   A
C716       C717 0.032       .   A
C716       C719 0.037       .   A
C717       C718 0.031       .   A
C717       H723 0.026       .   A
C718       O722 0.030       .   A
C719       C725 0.037       .   A
C719       N728 0.026       .   A
C719       H732 0.026       .   A
C720       N736 0.027       .   A
O722       H724 0.024       .   A
C725       N726 0.035       .   A
C725       H730 0.026       .   A
C725       H731 0.026       .   A
N726       N727 0.026       .   A
N726       C729 0.032       .   A
N727       N728 0.032       .   A
C729       C733 0.032       .   A
C729       H735 0.026       .   A
C733       H734 0.026       .   A
C689       C690 0.032       .   A
C689       C694 0.032       .   A
C690       C691 0.032       .   A
C690       H697 0.026       .   A
C691       C692 0.032       .   A
C691       C696 0.026       .   A
C692       C693 0.032       .   A
C692       C695 0.037       .   A
C693       C694 0.031       .   A
C693       H699 0.026       .   A
C694       O698 0.030       .   A
C695       C701 0.037       .   A
C695       N704 0.026       .   A
C695       H708 0.026       .   A
C696       N712 0.027       .   A
O698       H700 0.024       .   A
C701       N702 0.035       .   A
C701       H706 0.026       .   A
C701       H707 0.026       .   A
N702       N703 0.026       .   A
N702       C705 0.032       .   A
N703       N704 0.032       .   A
C705       C709 0.032       .   A
C705       H711 0.026       .   A
C709       H710 0.026       .   A
C665       C666 0.032       .   A
C665       C670 0.032       .   A
C666       C667 0.032       .   A
C666       H673 0.026       .   A
C667       C668 0.032       .   A
C667       C672 0.026       .   A
C668       C669 0.032       .   A
C668       C671 0.037       .   A
C669       C670 0.031       .   A
C669       H675 0.026       .   A
C670       O674 0.030       .   A
C671       C677 0.037       .   A
C671       N680 0.026       .   A
C671       H684 0.026       .   A
C672       N688 0.027       .   A
O674       H676 0.024       .   A
C677       N678 0.035       .   A
C677       H682 0.026       .   A
C677       H683 0.026       .   A
N678       N679 0.026       .   A
N678       C681 0.032       .   A
N679       N680 0.032       .   A
C681       C685 0.032       .   A
C681       H687 0.026       .   A
C685       H686 0.026       .   A
C641       C642 0.032       .   A
C641       C646 0.032       .   A
C642       C643 0.032       .   A
C642       H649 0.026       .   A
C643       C644 0.032       .   A
C643       C648 0.026       .   A
C644       C645 0.032       .   A
C644       C647 0.037       .   A
C645       C646 0.031       .   A
C645       H651 0.026       .   A
C646       O650 0.030       .   A
C647       C653 0.037       .   A
C647       N656 0.026       .   A
C647       H660 0.026       .   A
C648       N664 0.027       .   A
O650       H652 0.024       .   A
C653       N654 0.035       .   A
C653       H658 0.026       .   A
C653       H659 0.026       .   A
N654       N655 0.026       .   A
N654       C657 0.032       .   A
N655       N656 0.032       .   A
C657       C661 0.032       .   A
C657       H663 0.026       .   A
C661       H662 0.026       .   A
C617       C618 0.032       .   A
C617       C622 0.032       .   A
C618       C619 0.032       .   A
C618       H625 0.026       .   A
C619       C620 0.032       .   A
C619       C624 0.026       .   A
C620       C621 0.032       .   A
C620       C623 0.037       .   A
C621       C622 0.031       .   A
C621       H627 0.026       .   A
C622       O626 0.030       .   A
C623       C629 0.037       .   A
C623       N632 0.026       .   A
C623       H636 0.026       .   A
C624       N640 0.027       .   A
O626       H628 0.024       .   A
C629       N630 0.035       .   A
C629       H634 0.026       .   A
C629       H635 0.026       .   A
N630       N631 0.026       .   A
N630       C633 0.032       .   A
N631       N632 0.032       .   A
C633       C637 0.032       .   A
C633       H639 0.026       .   A
C637       H638 0.026       .   A
C593       C594 0.032       .   A
C593       C598 0.032       .   A
C594       C595 0.032       .   A
C594       H601 0.026       .   A
C595       C596 0.032       .   A
C595       C600 0.026       .   A
C596       C597 0.032       .   A
C596       C599 0.037       .   A
C597       C598 0.031       .   A
C597       H603 0.026       .   A
C598       O602 0.030       .   A
C599       C605 0.037       .   A
C599       N608 0.026       .   A
C599       H612 0.026       .   A
C600       N616 0.027       .   A
O602       H604 0.024       .   A
C605       N606 0.035       .   A
C605       H610 0.026       .   A
C605       H611 0.026       .   A
N606       N607 0.026       .   A
N606       C609 0.032       .   A
N607       N608 0.032       .   A
C609       C613 0.032       .   A
C609       H615 0.026       .   A
C613       H614 0.026       .   A
C569       C570 0.032       .   A
C569       C574 0.032       .   A
C570       C571 0.032       .   A
C570       H577 0.026       .   A
C571       C572 0.032       .   A
C571       C576 0.026       .   A
C572       C573 0.032       .   A
C572       C575 0.037       .   A
C573       C574 0.031       .   A
C573       H579 0.026       .   A
C574       O578 0.030       .   A
C575       C581 0.037       .   A
C575       N584 0.026       .   A
C575       H588 0.026       .   A
C576       N592 0.027       .   A
O578       H580 0.024       .   A
C581       N582 0.035       .   A
C581       H586 0.026       .   A
C581       H587 0.026       .   A
N582       N583 0.026       .   A
N582       C585 0.032       .   A
N583       N584 0.032       .   A
C585       C589 0.032       .   A
C585       H591 0.026       .   A
C589       H590 0.026       .   A
C545       C546 0.032       .   A
C545       C550 0.032       .   A
C546       C547 0.032       .   A
C546       H553 0.026       .   A
C547       C548 0.032       .   A
C547       C552 0.026       .   A
C548       C549 0.032       .   A
C548       C551 0.037       .   A
C549       C550 0.031       .   A
C549       H555 0.026       .   A
C550       O554 0.030       .   A
C551       C557 0.037       .   A
C551       N560 0.026       .   A
C551       H564 0.026       .   A
C552       N568 0.027       .   A
O554       H556 0.024       .   A
C557       N558 0.035       .   A
C557       H562 0.026       .   A
C557       H563 0.026       .   A
N558       N559 0.026       .   A
N558       C561 0.032       .   A
N559       N560 0.032       .   A
C561       C565 0.032       .   A
C561       H567 0.026       .   A
C565       H566 0.026       .   A
C521       C522 0.032       .   A
C521       C526 0.032       .   A
C522       C523 0.032       .   A
C522       H529 0.026       .   A
C523       C524 0.032       .   A
C523       C528 0.026       .   A
C524       C525 0.032       .   A
C524       C527 0.037       .   A
C525       C526 0.031       .   A
C525       H531 0.026       .   A
C526       O530 0.030       .   A
C527       C533 0.037       .   A
C527       N536 0.026       .   A
C527       H540 0.026       .   A
C528       N544 0.027       .   A
O530       H532 0.024       .   A
C533       N534 0.035       .   A
C533       H538 0.026       .   A
C533       H539 0.026       .   A
N534       N535 0.026       .   A
N534       C537 0.032       .   A
N535       N536 0.032       .   A
C537       C541 0.032       .   A
C537       H543 0.026       .   A
C541       H542 0.026       .   A
C497       C498 0.032       .   A
C497       C502 0.032       .   A
C498       C499 0.032       .   A
C498       H505 0.026       .   A
C499       C500 0.032       .   A
C499       C504 0.026       .   A
C500       C501 0.032       .   A
C500       C503 0.037       .   A
C501       C502 0.031       .   A
C501       H507 0.026       .   A
C502       O506 0.030       .   A
C503       C509 0.037       .   A
C503       N512 0.026       .   A
C503       H516 0.026       .   A
C504       N520 0.027       .   A
O506       H508 0.024       .   A
C509       N510 0.035       .   A
C509       H514 0.026       .   A
C509       H515 0.026       .   A
N510       N511 0.026       .   A
N510       C513 0.032       .   A
N511       N512 0.032       .   A
C513       C517 0.032       .   A
C513       H519 0.026       .   A
C517       H518 0.026       .   A
C473       C474 0.032       .   A
C473       C478 0.032       .   A
C474       C475 0.032       .   A
C474       H481 0.026       .   A
C475       C476 0.032       .   A
C475       C480 0.026       .   A
C476       C477 0.032       .   A
C476       C479 0.037       .   A
C477       C478 0.031       .   A
C477       H483 0.026       .   A
C478       O482 0.030       .   A
C479       C485 0.037       .   A
C479       N488 0.026       .   A
C479       H492 0.026       .   A
C480       N496 0.027       .   A
O482       H484 0.024       .   A
C485       N486 0.035       .   A
C485       H490 0.026       .   A
C485       H491 0.026       .   A
N486       N487 0.026       .   A
N486       C489 0.032       .   A
N487       N488 0.032       .   A
C489       C493 0.032       .   A
C489       H495 0.026       .   A
C493       H494 0.026       .   A
C449       C450 0.032       .   A
C449       C454 0.032       .   A
C450       C451 0.032       .   A
C450       H457 0.026       .   A
C451       C452 0.032       .   A
C451       C456 0.026       .   A
C452       C453 0.032       .   A
C452       C455 0.037       .   A
C453       C454 0.031       .   A
C453       H459 0.026       .   A
C454       O458 0.030       .   A
C455       C461 0.037       .   A
C455       N464 0.026       .   A
C455       H468 0.026       .   A
C456       N472 0.027       .   A
O458       H460 0.024       .   A
C461       N462 0.035       .   A
C461       H466 0.026       .   A
C461       H467 0.026       .   A
N462       N463 0.026       .   A
N462       C465 0.032       .   A
N463       N464 0.032       .   A
C465       C469 0.032       .   A
C465       H471 0.026       .   A
C469       H470 0.026       .   A
C425       C426 0.032       .   A
C425       C430 0.032       .   A
C426       C427 0.032       .   A
C426       H433 0.026       .   A
C427       C428 0.032       .   A
C427       C432 0.026       .   A
C428       C429 0.032       .   A
C428       C431 0.037       .   A
C429       C430 0.031       .   A
C429       H435 0.026       .   A
C430       O434 0.030       .   A
C431       C437 0.037       .   A
C431       N440 0.026       .   A
C431       H444 0.026       .   A
C432       N448 0.027       .   A
O434       H436 0.024       .   A
C437       N438 0.035       .   A
C437       H442 0.026       .   A
C437       H443 0.026       .   A
N438       N439 0.026       .   A
N438       C441 0.032       .   A
N439       N440 0.032       .   A
C441       C445 0.032       .   A
C441       H447 0.026       .   A
C445       H446 0.026       .   A
C401       C402 0.032       .   A
C401       C406 0.032       .   A
C402       C403 0.032       .   A
C402       H409 0.026       .   A
C403       C404 0.032       .   A
C403       C408 0.026       .   A
C404       C405 0.032       .   A
C404       C407 0.037       .   A
C405       C406 0.031       .   A
C405       H411 0.026       .   A
C406       O410 0.030       .   A
C407       C413 0.037       .   A
C407       N416 0.026       .   A
C407       H420 0.026       .   A
C408       N424 0.027       .   A
O410       H412 0.024       .   A
C413       N414 0.035       .   A
C413       H418 0.026       .   A
C413       H419 0.026       .   A
N414       N415 0.026       .   A
N414       C417 0.032       .   A
N415       N416 0.032       .   A
C417       C421 0.032       .   A
C417       H423 0.026       .   A
C421       H422 0.026       .   A
C377       C378 0.032       .   A
C377       C382 0.032       .   A
C378       C379 0.032       .   A
C378       H385 0.026       .   A
C379       C380 0.032       .   A
C379       C384 0.026       .   A
C380       C381 0.032       .   A
C380       C383 0.037       .   A
C381       C382 0.031       .   A
C381       H387 0.026       .   A
C382       O386 0.030       .   A
C383       C389 0.037       .   A
C383       N392 0.026       .   A
C383       H396 0.026       .   A
C384       N400 0.027       .   A
O386       H388 0.024       .   A
C389       N390 0.035       .   A
C389       H394 0.026       .   A
C389       H395 0.026       .   A
N390       N391 0.026       .   A
N390       C393 0.032       .   A
N391       N392 0.032       .   A
C393       C397 0.032       .   A
C393       H399 0.026       .   A
C397       H398 0.026       .   A
C353       C354 0.032       .   A
C353       C358 0.032       .   A
C354       C355 0.032       .   A
C354       H361 0.026       .   A
C355       C356 0.032       .   A
C355       C360 0.026       .   A
C356       C357 0.032       .   A
C356       C359 0.037       .   A
C357       C358 0.031       .   A
C357       H363 0.026       .   A
C358       O362 0.030       .   A
C359       C365 0.037       .   A
C359       N368 0.026       .   A
C359       H372 0.026       .   A
C360       N376 0.027       .   A
O362       H364 0.024       .   A
C365       N366 0.035       .   A
C365       H370 0.026       .   A
C365       H371 0.026       .   A
N366       N367 0.026       .   A
N366       C369 0.032       .   A
N367       N368 0.032       .   A
C369       C373 0.032       .   A
C369       H375 0.026       .   A
C373       H374 0.026       .   A
C329       C330 0.032       .   A
C329       C334 0.032       .   A
C330       C331 0.032       .   A
C330       H337 0.026       .   A
C331       C332 0.032       .   A
C331       C336 0.026       .   A
C332       C333 0.032       .   A
C332       C335 0.037       .   A
C333       C334 0.031       .   A
C333       H339 0.026       .   A
C334       O338 0.030       .   A
C335       C341 0.037       .   A
C335       N344 0.026       .   A
C335       H348 0.026       .   A
C336       N352 0.027       .   A
O338       H340 0.024       .   A
C341       N342 0.035       .   A
C341       H346 0.026       .   A
C341       H347 0.026       .   A
N342       N343 0.026       .   A
N342       C345 0.032       .   A
N343       N344 0.032       .   A
C345       C349 0.032       .   A
C345       H351 0.026       .   A
C349       H350 0.026       .   A
C305       C306 0.032       .   A
C305       C310 0.032       .   A
C306       C307 0.032       .   A
C306       H313 0.026       .   A
C307       C308 0.032       .   A
C307       C312 0.026       .   A
C308       C309 0.032       .   A
C308       C311 0.037       .   A
C309       C310 0.031       .   A
C309       H315 0.026       .   A
C310       O314 0.030       .   A
C311       C317 0.037       .   A
C311       N320 0.026       .   A
C311       H324 0.026       .   A
C312       N328 0.027       .   A
O314       H316 0.024       .   A
C317       N318 0.035       .   A
C317       H322 0.026       .   A
C317       H323 0.026       .   A
N318       N319 0.026       .   A
N318       C321 0.032       .   A
N319       N320 0.032       .   A
C321       C325 0.032       .   A
C321       H327 0.026       .   A
C325       H326 0.026       .   A
C281       C282 0.032       .   A
C281       C286 0.032       .   A
C282       C283 0.032       .   A
C282       H289 0.026       .   A
C283       C284 0.032       .   A
C283       C288 0.026       .   A
C284       C285 0.032       .   A
C284       C287 0.037       .   A
C285       C286 0.031       .   A
C285       H291 0.026       .   A
C286       O290 0.030       .   A
C287       C293 0.037       .   A
C287       N296 0.026       .   A
C287       H300 0.026       .   A
C288       N304 0.027       .   A
O290       H292 0.024       .   A
C293       N294 0.035       .   A
C293       H298 0.026       .   A
C293       H299 0.026       .   A
N294       N295 0.026       .   A
N294       C297 0.032       .   A
N295       N296 0.032       .   A
C297       C301 0.032       .   A
C297       H303 0.026       .   A
C301       H302 0.026       .   A
C257       C258 0.032       .   A
C257       C262 0.032       .   A
C258       C259 0.032       .   A
C258       H265 0.026       .   A
C259       C260 0.032       .   A
C259       C264 0.026       .   A
C260       C261 0.032       .   A
C260       C263 0.037       .   A
C261       C262 0.031       .   A
C261       H267 0.026       .   A
C262       O266 0.030       .   A
C263       C269 0.037       .   A
C263       N272 0.026       .   A
C263       H276 0.026       .   A
C264       N280 0.027       .   A
O266       H268 0.024       .   A
C269       N270 0.035       .   A
C269       H274 0.026       .   A
C269       H275 0.026       .   A
N270       N271 0.026       .   A
N270       C273 0.032       .   A
N271       N272 0.032       .   A
C273       C277 0.032       .   A
C273       H279 0.026       .   A
C277       H278 0.026       .   A
C233       C234 0.032       .   A
C233       C238 0.032       .   A
C234       C235 0.032       .   A
C234       H241 0.026       .   A
C235       C236 0.032       .   A
C235       C240 0.026       .   A
C236       C237 0.032       .   A
C236       C239 0.037       .   A
C237       C238 0.031       .   A
C237       H243 0.026       .   A
C238       O242 0.030       .   A
C239       C245 0.037       .   A
C239       N248 0.026       .   A
C239       H252 0.026       .   A
C240       N256 0.027       .   A
O242       H244 0.024       .   A
C245       N246 0.035       .   A
C245       H250 0.026       .   A
C245       H251 0.026       .   A
N246       N247 0.026       .   A
N246       C249 0.032       .   A
N247       N248 0.032       .   A
C249       C253 0.032       .   A
C249       H255 0.026       .   A
C253       H254 0.026       .   A
C209       C210 0.032       .   A
C209       C214 0.032       .   A
C210       C211 0.032       .   A
C210       H217 0.026       .   A
C211       C212 0.032       .   A
C211       C216 0.026       .   A
C212       C213 0.032       .   A
C212       C215 0.037       .   A
C213       C214 0.031       .   A
C213       H219 0.026       .   A
C214       O218 0.030       .   A
C215       C221 0.037       .   A
C215       N224 0.026       .   A
C215       H228 0.026       .   A
C216       N232 0.027       .   A
O218       H220 0.024       .   A
C221       N222 0.035       .   A
C221       H226 0.026       .   A
C221       H227 0.026       .   A
N222       N223 0.026       .   A
N222       C225 0.032       .   A
N223       N224 0.032       .   A
C225       C229 0.032       .   A
C225       H231 0.026       .   A
C229       H230 0.026       .   A
C185       C186 0.032       .   A
C185       C190 0.032       .   A
C186       C187 0.032       .   A
C186       H193 0.026       .   A
C187       C188 0.032       .   A
C187       C192 0.026       .   A
C188       C189 0.032       .   A
C188       C191 0.037       .   A
C189       C190 0.031       .   A
C189       H195 0.026       .   A
C190       O194 0.030       .   A
C191       C197 0.037       .   A
C191       N200 0.026       .   A
C191       H204 0.026       .   A
C192       N208 0.027       .   A
O194       H196 0.024       .   A
C197       N198 0.035       .   A
C197       H202 0.026       .   A
C197       H203 0.026       .   A
N198       N199 0.026       .   A
N198       C201 0.032       .   A
N199       N200 0.032       .   A
C201       C205 0.032       .   A
C201       H207 0.026       .   A
C205       H206 0.026       .   A
