data_pcu_v1-6c_Zn_1_Ch_1-91_fer_tobacco
_audit_creation_date              2021-02-03
_audit_creation_method            'tobacco_3.0'
_symmetry_space_group_name_H-M    'P1'
_symmetry_Int_Tables_number       1
_symmetry_cell_setting            triclinic
loop_
_symmetry_equiv_pos_as_xyz
  x,y,z
_cell_length_a                    26.198450537731542
_cell_length_b                    26.198450537731542
_cell_length_c                    26.198450537731542
_cell_angle_alpha                 90.0
_cell_angle_beta                  90.0
_cell_angle_gamma                 90.0
loop_
_atom_site_label
_atom_site_type_symbol
_atom_site_fract_x
_atom_site_fract_y
_atom_site_fract_z
_atom_site_charge
Zn1       Zn   -0.0427964241   -0.0427964241    0.0427964241          1.4972
Zn2       Zn    0.0427964241    0.0427964241    0.0427964241          1.4936
Zn3       Zn    0.0427964241   -0.0427964241   -0.0427964241          1.4911
Zn4       Zn   -0.0427964241    0.0427964241   -0.0427964241          1.4948
O5         O    0.0000000000    0.0000000000    0.0000000000         -2.1464
O6         O   -0.0314522418   -0.0314522418    0.1143808103         -1.0527
O7         O    0.1143808103    0.0314522418    0.0314522418         -1.0509
O8         O    0.0314522418   -0.1143808103   -0.0314522418          -1.046
O9         O    0.0314522418    0.0314522418    0.1143808103         -1.0528
O10        O   -0.0314522418   -0.1143808103    0.0314522418         -1.0488
O11        O    0.1143808103   -0.0314522418   -0.0314522418         -1.0546
O12        O   -0.0314522418    0.0314522418   -0.1143808103         -1.0485
O13        O    0.0314522418    0.1143808103    0.0314522418         -1.0561
O14        O    0.0314522418   -0.0314522418   -0.1143808103           -1.05
O15        O   -0.0314522418    0.1143808103   -0.0314522418         -1.0547
O16        O   -0.1143808103    0.0314522418   -0.0314522418         -1.0538
O17        O   -0.1143808103   -0.0314522418    0.0314522418         -1.0517
C18        C   -0.0000000000   -0.0000000000    0.1367561793          0.4662
C19        C    0.1367561793   -0.0000000000   -0.0000000000          0.4711
C20        C   -0.0000000000   -0.1367561793    0.0000000000          0.4607
C21        C    0.0000000000    0.0000000000   -0.1367561793          0.4645
C22        C    0.0000000000    0.1367561793   -0.0000000000          0.4759
C23        C   -0.1367561793    0.0000000000    0.0000000000          0.4664
Zn24      Zn    1.0427964241    0.0427964241    0.5427964241          1.4972
Zn25      Zn    0.9572035759   -0.0427964241    0.5427964241          1.4936
Zn26      Zn    0.9572035759    0.0427964241    0.4572035759          1.4911
Zn27      Zn    1.0427964241   -0.0427964241    0.4572035759          1.4948
O28        O    1.0000000000    0.0000000000    0.5000000000         -2.1464
O29        O    1.0314522418    0.0314522418    0.6143808103         -1.0527
O30        O    0.8856191897   -0.0314522418    0.5314522418         -1.0509
O31        O    0.9685477582    0.1143808103    0.4685477582          -1.046
O32        O    0.9685477582   -0.0314522418    0.6143808103         -1.0528
O33        O    1.0314522418    0.1143808103    0.5314522418         -1.0488
O34        O    0.8856191897    0.0314522418    0.4685477582         -1.0546
O35        O    1.0314522418   -0.0314522418    0.3856191897         -1.0485
O36        O    0.9685477582   -0.1143808103    0.5314522418         -1.0561
O37        O    0.9685477582    0.0314522418    0.3856191897           -1.05
O38        O    1.0314522418   -0.1143808103    0.4685477582         -1.0547
O39        O    1.1143808103   -0.0314522418    0.4685477582         -1.0538
O40        O    1.1143808103    0.0314522418    0.5314522418         -1.0517
C41        C    1.0000000000    0.0000000000    0.6367561793          0.4662
C42        C    0.8632438207    0.0000000000    0.5000000000          0.4711
C43        C    1.0000000000    0.1367561793    0.5000000000          0.4607
C44        C    1.0000000000    0.0000000000    0.3632438207          0.4645
C45        C    1.0000000000   -0.1367561793    0.5000000000          0.4759
C46        C    1.1367561793    0.0000000000    0.5000000000          0.4664
Zn47      Zn    1.0427964241    0.4572035759   -0.0427964241          1.4972
Zn48      Zn    0.9572035759    0.4572035759    0.0427964241          1.4936
Zn49      Zn    1.0427964241    0.5427964241    0.0427964241          1.4911
Zn50      Zn    0.9572035759    0.5427964241   -0.0427964241          1.4948
O51        O    1.0000000000    0.5000000000    0.0000000000         -2.1464
O52        O    1.0314522418    0.3856191897   -0.0314522418         -1.0527
O53        O    0.9685477582    0.4685477582    0.1143808103         -1.0509
O54        O    1.1143808103    0.5314522418    0.0314522418          -1.046
O55        O    0.9685477582    0.3856191897    0.0314522418         -1.0528
O56        O    1.1143808103    0.4685477582   -0.0314522418         -1.0488
O57        O    1.0314522418    0.5314522418    0.1143808103         -1.0546
O58        O    0.9685477582    0.6143808103   -0.0314522418         -1.0485
O59        O    0.8856191897    0.4685477582    0.0314522418         -1.0561
O60        O    1.0314522418    0.6143808103    0.0314522418           -1.05
O61        O    0.8856191897    0.5314522418   -0.0314522418         -1.0547
O62        O    0.9685477582    0.5314522418   -0.1143808103         -1.0538
O63        O    1.0314522418    0.4685477582   -0.1143808103         -1.0517
C64        C    1.0000000000    0.3632438207    0.0000000000          0.4662
C65        C    1.0000000000    0.5000000000    0.1367561793          0.4711
C66        C    1.1367561793    0.5000000000    0.0000000000          0.4607
C67        C    1.0000000000    0.6367561793    0.0000000000          0.4645
C68        C    0.8632438207    0.5000000000    0.0000000000          0.4759
C69        C    1.0000000000    0.5000000000   -0.1367561793          0.4664
Zn70      Zn    0.9572035759    0.4572035759    0.5427964241          1.4972
Zn71      Zn    1.0427964241    0.4572035759    0.4572035759          1.4936
Zn72      Zn    0.9572035759    0.5427964241    0.4572035759          1.4911
Zn73      Zn    1.0427964241    0.5427964241    0.5427964241          1.4948
O74        O    1.0000000000    0.5000000000    0.5000000000         -2.1464
O75        O    0.9685477582    0.3856191897    0.5314522418         -1.0527
O76        O    1.0314522418    0.4685477582    0.3856191897         -1.0509
O77        O    0.8856191897    0.5314522418    0.4685477582          -1.046
O78        O    1.0314522418    0.3856191897    0.4685477582         -1.0528
O79        O    0.8856191897    0.4685477582    0.5314522418         -1.0488
O80        O    0.9685477582    0.5314522418    0.3856191897         -1.0546
O81        O    1.0314522418    0.6143808103    0.5314522418         -1.0485
O82        O    1.1143808103    0.4685477582    0.4685477582         -1.0561
O83        O    0.9685477582    0.6143808103    0.4685477582           -1.05
O84        O    1.1143808103    0.5314522418    0.5314522418         -1.0547
O85        O    1.0314522418    0.5314522418    0.6143808103         -1.0538
O86        O    0.9685477582    0.4685477582    0.6143808103         -1.0517
C87        C    1.0000000000    0.3632438207    0.5000000000          0.4662
C88        C    1.0000000000    0.5000000000    0.3632438207          0.4711
C89        C    0.8632438207    0.5000000000    0.5000000000          0.4607
C90        C    1.0000000000    0.6367561793    0.5000000000          0.4645
C91        C    1.1367561793    0.5000000000    0.5000000000          0.4759
C92        C    1.0000000000    0.5000000000    0.6367561793          0.4664
Zn93      Zn    0.5427964241    1.0427964241   -0.0427964241          1.4972
Zn94      Zn    0.4572035759    1.0427964241    0.0427964241          1.4936
Zn95      Zn    0.4572035759    0.9572035759   -0.0427964241          1.4911
Zn96      Zn    0.5427964241    0.9572035759    0.0427964241          1.4948
O97        O    0.5000000000    1.0000000000    0.0000000000         -2.1464
O98        O    0.5314522418    1.1143808103   -0.0314522418         -1.0527
O99        O    0.3856191897    1.0314522418    0.0314522418         -1.0509
O100       O    0.4685477582    0.9685477582   -0.1143808103          -1.046
O101       O    0.4685477582    1.1143808103    0.0314522418         -1.0528
O102       O    0.5314522418    1.0314522418   -0.1143808103         -1.0488
O103       O    0.3856191897    0.9685477582   -0.0314522418         -1.0546
O104       O    0.5314522418    0.8856191897    0.0314522418         -1.0485
O105       O    0.4685477582    1.0314522418    0.1143808103         -1.0561
O106       O    0.4685477582    0.8856191897   -0.0314522418           -1.05
O107       O    0.5314522418    0.9685477582    0.1143808103         -1.0547
O108       O    0.6143808103    0.9685477582    0.0314522418         -1.0538
O109       O    0.6143808103    1.0314522418   -0.0314522418         -1.0517
C110       C    0.5000000000    1.1367561793    0.0000000000          0.4662
C111       C    0.3632438207    1.0000000000    0.0000000000          0.4711
C112       C    0.5000000000    1.0000000000   -0.1367561793          0.4607
C113       C    0.5000000000    0.8632438207    0.0000000000          0.4645
C114       C    0.5000000000    1.0000000000    0.1367561793          0.4759
C115       C    0.6367561793    1.0000000000    0.0000000000          0.4664
Zn116     Zn    0.4572035759    0.9572035759    0.4572035759          1.4972
Zn117     Zn    0.4572035759    1.0427964241    0.5427964241          1.4936
Zn118     Zn    0.5427964241    0.9572035759    0.5427964241          1.4911
Zn119     Zn    0.5427964241    1.0427964241    0.4572035759          1.4948
O120       O    0.5000000000    1.0000000000    0.5000000000         -2.1464
O121       O    0.3856191897    0.9685477582    0.4685477582         -1.0527
O122       O    0.4685477582    1.0314522418    0.6143808103         -1.0509
O123       O    0.5314522418    0.8856191897    0.5314522418          -1.046
O124       O    0.3856191897    1.0314522418    0.5314522418         -1.0528
O125       O    0.4685477582    0.8856191897    0.4685477582         -1.0488
O126       O    0.5314522418    0.9685477582    0.6143808103         -1.0546
O127       O    0.6143808103    1.0314522418    0.4685477582         -1.0485
O128       O    0.4685477582    1.1143808103    0.5314522418         -1.0561
O129       O    0.6143808103    0.9685477582    0.5314522418           -1.05
O130       O    0.5314522418    1.1143808103    0.4685477582         -1.0547
O131       O    0.5314522418    1.0314522418    0.3856191897         -1.0538
O132       O    0.4685477582    0.9685477582    0.3856191897         -1.0517
C133       C    0.3632438207    1.0000000000    0.5000000000          0.4662
C134       C    0.5000000000    1.0000000000    0.6367561793          0.4711
C135       C    0.5000000000    0.8632438207    0.5000000000          0.4607
C136       C    0.6367561793    1.0000000000    0.5000000000          0.4645
C137       C    0.5000000000    1.1367561793    0.5000000000          0.4759
C138       C    0.5000000000    1.0000000000    0.3632438207          0.4664
Zn139     Zn    0.5427964241    0.5427964241   -0.0427964241          1.4972
Zn140     Zn    0.4572035759    0.5427964241    0.0427964241          1.4936
Zn141     Zn    0.4572035759    0.4572035759   -0.0427964241          1.4911
Zn142     Zn    0.5427964241    0.4572035759    0.0427964241          1.4948
O143       O    0.5000000000    0.5000000000    0.0000000000         -2.1464
O144       O    0.5314522418    0.6143808103   -0.0314522418         -1.0527
O145       O    0.3856191897    0.5314522418    0.0314522418         -1.0509
O146       O    0.4685477582    0.4685477582   -0.1143808103          -1.046
O147       O    0.4685477582    0.6143808103    0.0314522418         -1.0528
O148       O    0.5314522418    0.5314522418   -0.1143808103         -1.0488
O149       O    0.3856191897    0.4685477582   -0.0314522418         -1.0546
O150       O    0.5314522418    0.3856191897    0.0314522418         -1.0485
O151       O    0.4685477582    0.5314522418    0.1143808103         -1.0561
O152       O    0.4685477582    0.3856191897   -0.0314522418           -1.05
O153       O    0.5314522418    0.4685477582    0.1143808103         -1.0547
O154       O    0.6143808103    0.4685477582    0.0314522418         -1.0538
O155       O    0.6143808103    0.5314522418   -0.0314522418         -1.0517
C156       C    0.5000000000    0.6367561793    0.0000000000          0.4662
C157       C    0.3632438207    0.5000000000    0.0000000000          0.4711
C158       C    0.5000000000    0.5000000000   -0.1367561793          0.4607
C159       C    0.5000000000    0.3632438207    0.0000000000          0.4645
C160       C    0.5000000000    0.5000000000    0.1367561793          0.4759
C161       C    0.6367561793    0.5000000000    0.0000000000 0.46559999999999996
Zn162     Zn    0.4572035759    0.5427964241    0.4572035759          1.4972
Zn163     Zn    0.4572035759    0.4572035759    0.5427964241          1.4936
Zn164     Zn    0.5427964241    0.4572035759    0.4572035759          1.4911
Zn165     Zn    0.5427964241    0.5427964241    0.5427964241          1.4948
O166       O    0.5000000000    0.5000000000    0.5000000000         -2.1464
O167       O    0.3856191897    0.5314522418    0.4685477582         -1.0527
O168       O    0.4685477582    0.3856191897    0.5314522418         -1.0509
O169       O    0.5314522418    0.4685477582    0.3856191897          -1.046
O170       O    0.3856191897    0.4685477582    0.5314522418         -1.0528
O171       O    0.4685477582    0.5314522418    0.3856191897         -1.0488
O172       O    0.5314522418    0.3856191897    0.4685477582         -1.0546
O173       O    0.6143808103    0.5314522418    0.5314522418         -1.0485
O174       O    0.4685477582    0.4685477582    0.6143808103         -1.0561
O175       O    0.6143808103    0.4685477582    0.4685477582           -1.05
O176       O    0.5314522418    0.5314522418    0.6143808103         -1.0547
O177       O    0.5314522418    0.6143808103    0.5314522418         -1.0538
O178       O    0.4685477582    0.6143808103    0.4685477582         -1.0517
C179       C    0.3632438207    0.5000000000    0.5000000000          0.4662
C180       C    0.5000000000    0.3632438207    0.5000000000          0.4711
C181       C    0.5000000000    0.5000000000    0.3632438207          0.4607
C182       C    0.6367561793    0.5000000000    0.5000000000          0.4645
C183       C    0.5000000000    0.5000000000    0.6367561793          0.4759
C184       C    0.5000000000    0.6367561793    0.5000000000          0.4664
C484       C    0.5000000000    0.5000000000   -0.1955382816          0.6826
C485       C    0.5073846257    0.4566037214   -0.2243276363         -0.3066
C486       C    0.5083267188    0.4571050884   -0.2769463295          0.6905
C487       C    0.5000000000    0.5000000000   -0.3044617184          0.6786
C488       C    0.4947182679    0.5413733534   -0.2744636621          0.6669
C489       C    0.5007647823    0.5432484256   -0.2234227217          0.6631
Cl490     Cl    0.5151578088    0.4003236014   -0.3102579173         -0.2929
N491       N    0.5117591603    0.4104846069   -0.2019269026         -0.2903
Cl492     Cl    0.4950840764    0.6031982889   -0.1955839530           0.644
O493       O    0.4471187662    0.5517634108   -0.2772816024         -0.2985
H494       H    0.4475352962    0.5206192406   -0.2548425689         -0.2852
H495       H    0.5376799429    0.3850891625   -0.2159274591         -0.3016
H496       H    0.4797524414    0.3901240036   -0.1934672742         -0.2554
C471       C    0.5000000000    0.5000000000    0.1955382816          0.6826
C472       C    0.4577388433    0.4876807337    0.2243276363         -0.3066
C473       C    0.4577781776    0.4887472050    0.2769463295          0.6905
C474       C    0.5000000000    0.5000000000    0.3044617184          0.6786
C475       C    0.5395227138    0.5133268962    0.2744636621          0.6669
C476       C    0.5385673452    0.5195849712    0.2234227217          0.6631
Cl477     Cl    0.4037190276    0.4700814781    0.3102579173         -0.2929
N478       N    0.4143437593    0.4714642000    0.2019269026         -0.2903
Cl479     Cl    0.5949737656    0.5406698536    0.1955839530           0.644
O480       O    0.5696666884    0.4750514910    0.2772816024         -0.2985
H481       H    0.5414708306    0.4618179566    0.2548425689         -0.2852
H482       H    0.3801749393    0.4836833368    0.2159274591         -0.3016
H483       H    0.4100146902    0.4337780834    0.1934672742         -0.2554
C458       C    0.5000000000    0.8044617184    0.5000000000          0.6826
C459       C    0.5150883777    0.7756723637    0.4586465171         -0.3066
C460       C    0.5140216408    0.7230536705    0.4586152048          0.6905
C461       C    0.5000000000    0.6955382816    0.5000000000          0.6786
C462       C    0.4840873825    0.7255363379    0.5385543729          0.6669
C463       C    0.4779062294    0.7765772783    0.5371870476          0.6631
Cl464     Cl    0.5362231581    0.6897420827    0.4059094775         -0.2929
N465       N    0.5341405069    0.7980730974    0.4164194445         -0.2903
Cl466     Cl    0.4531355560    0.8044160470    0.5920748447           0.644
O467       O    0.5202845196    0.7227183976    0.5711646952         -0.2985
H468       H    0.5353545665    0.7451574311    0.5439061824         -0.2852
H469       H    0.5242088392    0.7840725409    0.3815170444         -0.3016
H470       H    0.5720304701    0.8065327258    0.4145932696         -0.2554
C445       C    0.5000000000    1.1955382816    0.5000000000          0.6826
C446       C    0.4740178701    1.2243276363    0.5355344708         -0.3066
C447       C    0.4733987133    1.2769463295    0.5346652453          0.6905
C448       C    0.5000000000    1.3044617184    0.5000000000          0.6786
C449       C    0.5231973068    1.2744636621    0.4653368204          0.6669
C450       C    0.5186239641    1.2234227217    0.4609595188          0.6631
Cl451     Cl    0.4419360536    1.3102579173    0.5824240361         -0.2929
N452       N    0.4495135817    1.2019269026    0.5748492153         -0.2903
Cl453     Cl    0.5504717752    1.1955839530    0.4098520491           0.644
O454       O    0.5704283788    1.2772816024    0.4772905517         -0.2985
H455       H    0.5561513222    1.2548425689    0.5049726486         -0.2852
H456       H    0.4149816360    1.2159274591    0.5860009096         -0.3016
H457       H    0.4690634453    1.1934672742    0.6073574767         -0.2554
C432       C    0.5000000000    0.8044617184    0.0000000000          0.6826
C433       C    0.5387214246    0.7756723637    0.0209385044         -0.3066
C434       C    0.5389074446    0.7230536705    0.0198876454          0.6905
C435       C    0.5000000000    0.6955382816    0.0000000000          0.6786
C436       C    0.4641677591    0.7255363379   -0.0213471679          0.6669
C437       C    0.4664189381    0.7765772783   -0.0272639596          0.6631
Cl438     Cl    0.5878267438    0.6897420827    0.0495137018         -0.2929
N439       N    0.5777310688    0.7980730974    0.0459256400         -0.2903
Cl440     Cl    0.4157141417    0.8044160470   -0.0597490354           0.644
O441       O    0.4266427900    0.7227183976    0.0097260127         -0.2985
H442       H    0.4514215736    0.7451574311    0.0285978096         -0.2852
H443       H    0.6137063386    0.7840725409    0.0411721656         -0.3016
H444       H    0.5740309029    0.8065327258    0.0836786928         -0.2554
C419       C    0.5000000000    1.1955382816    0.0000000000          0.6826
C420       C    0.4737261282    1.2243276363    0.0353193057         -0.3066
C421       C    0.4731141504    1.2769463295    0.0344450109          0.6905
C422       C    0.5000000000    1.3044617184    0.0000000000          0.6786
C423       C    0.5234819681    1.2744636621   -0.0344709768          0.6669
C424       C    0.5189448272    1.2234227217   -0.0388857909          0.6631
Cl425     Cl    0.4412592686    1.3102579173    0.0819430905         -0.2929
N426       N    0.4488989177    1.2019269026    0.0744309267         -0.2903
Cl427     Cl    0.5512124233    1.1955839530   -0.0897292641           0.644
O428       O    0.5706130008    1.2772816024   -0.0221287075         -0.2985
H429       H    0.5561084690    1.2548425689    0.0054348806         -0.2852
H430       H    0.4142763098    1.2159274591    0.0852978757         -0.3016
H431       H    0.4681804160    1.1934672742    0.1070990770         -0.2554
C406       C    0.5000000000    1.0000000000   -0.1955382816          0.6826
C407       C    0.5142873151    1.0416370306   -0.2243276363         -0.3066
C408       C    0.5132201725    1.0416477457   -0.2769463295          0.6905
C409       C    0.5000000000    1.0000000000   -0.3044617184          0.6786
C410       C    0.4848345671    0.9611456475   -0.2744636621          0.6669
C411       C    0.4786281721    0.9623934024   -0.2234227217          0.6631
Cl412     Cl    0.5344001682    1.0947722113   -0.3102579173         -0.2929
N413       N    0.5325207802    1.0842240008   -0.2019269026         -0.2903
Cl414     Cl    0.4549216198    0.9070376809   -0.1955839530           0.644
O415       O    0.5216544408    0.9292401189   -0.2772816024         -0.2985
H416       H    0.5361955054    0.9567844518   -0.2548425689         -0.2852
H417       H    0.5219172378    1.1189281857   -0.2159274591         -0.3016
H418       H    0.5703684327    1.0867812301   -0.1934672742         -0.2554
C393       C    0.5000000000    1.0000000000    0.1955382816          0.6826
C394       C    0.5422611567    1.0123192663    0.2243276363         -0.3066
C395       C    0.5422218224    1.0112527950    0.2769463295          0.6905
C396       C    0.5000000000    1.0000000000    0.3044617184          0.6786
C397       C    0.4604772862    0.9866731038    0.2744636621          0.6669
C398       C    0.4614326548    0.9804150288    0.2234227217          0.6631
Cl399     Cl    0.5962809724    1.0299185219    0.3102579173         -0.2929
N400       N    0.5856562407    1.0285358000    0.2019269026         -0.2903
Cl401     Cl    0.4050262344    0.9593301464    0.1955839530           0.644
O402       O    0.4303333116    1.0249485090    0.2772816024         -0.2985
H403       H    0.4585291694    1.0381820434    0.2548425689         -0.2852
H404       H    0.6198250607    1.0163166632    0.2159274591         -0.3016
H405       H    0.5899853098    1.0662219166    0.1934672742         -0.2554
C380       C    0.8044617184    0.5000000000    0.5000000000          0.6826
C381       C    0.7756723637    0.5213634052    0.4615113704         -0.3066
C382       C    0.7230536705    0.5220858109    0.4622968882          0.6905
C383       C    0.6955382816    0.5000000000    0.5000000000          0.6786
C384       C    0.7255363379    0.4812915101    0.5372779221          0.6669
C385       C    0.7765772783    0.4863735121    0.5410527714          0.6631
Cl386     Cl    0.6897420827    0.5473676629    0.4109974825         -0.2929
N387       N    0.7980730974    0.5407905150    0.4194554946         -0.2903
Cl388     Cl    0.8044160470    0.4611257619    0.5957227598           0.644
O389       O    0.7227183976    0.4329408361    0.5312880827         -0.2985
H390       H    0.7451574311    0.4436660643    0.5020459502         -0.2852
H391       H    0.7840725409    0.5736683830    0.4040977164         -0.3016
H392       H    0.8065327258    0.5173512649    0.3896295700         -0.2554
C367       C    1.1955382816    0.5000000000    0.5000000000          0.6826
C368       C    1.2243276363    0.5394628705    0.4804948329         -0.3066
C369       C    1.2769463295    0.5387126674    0.4797358181          0.6905
C370       C    1.3044617184    0.5000000000    0.5000000000          0.6786
C371       C    1.2744636621    0.4618729678    0.5169109574          0.6669
C372       C    1.2234227217    0.4583445621    0.5116548576          0.6631
Cl373     Cl    1.3102579173    0.5911584750    0.4569270846         -0.2929
N374       N    1.2019269026    0.5823966712    0.4630937399         -0.2903
Cl375     Cl    1.1955839530    0.4025336252    0.5342689207           0.644
O376       O    1.2772816024    0.4655521084    0.5654921243         -0.2985
H377       H    1.2548425689    0.4952720789    0.5561724575         -0.2852
H378       H    1.2159274591    0.5993036251    0.4309850110         -0.3016
H379       H    1.1934672742    0.6110718437    0.4879275617         -0.2554
C354       C    0.8044617184    0.5000000000    0.0000000000          0.6826
C355       C    0.7756723637    0.5286313563    0.0334367332         -0.3066
C356       C    0.7230536705    0.5276433345    0.0338401203          0.6905
C357       C    0.6955382816    0.5000000000    0.0000000000          0.6786
C358       C    0.7255363379    0.4715782798   -0.0305263311          0.6669
C359       C    0.7765772783    0.4662690824   -0.0270783383          0.6631
Cl360     Cl    0.6897420827    0.5669169528    0.0754139578         -0.2929
N361       N    0.7980730974    0.5612811094    0.0663016523         -0.2903
Cl362     Cl    0.8044160470    0.4238242763   -0.0697947867           0.644
O363       O    0.7227183976    0.4940418200   -0.0737589023         -0.2985
H364       H    0.7451574311    0.5177134532   -0.0535157154         -0.2852
H365       H    0.7840725409    0.5642189883    0.1024704846         -0.3016
H366       H    0.8065327258    0.5974055216    0.0547253376         -0.2554
C341       C    1.1955382816    0.5000000000    0.0000000000          0.6826
C342       C    1.2243276363    0.5292986901   -0.0328535606         -0.3066
C343       C    1.2769463295    0.5283189894   -0.0332767565          0.6905
C344       C    1.3044617184    0.5000000000    0.0000000000          0.6786
C345       C    1.2744636621    0.4709694946    0.0299479686          0.6669
C346       C    1.2234227217    0.4657307869    0.0263937918          0.6631
Cl347     Cl    1.3102579173    0.5684215981   -0.0740515260         -0.2929
N348       N    1.2019269026    0.5626034512   -0.0650545261         -0.2903
Cl349     Cl    1.1955839530    0.4224346305    0.0682470995           0.644
O350       O    1.2772816024    0.4925581396    0.0736240062         -0.2985
H351       H    1.2548425689    0.5166325041    0.0538614708         -0.2852
H352       H    1.2159274591    0.5662688728   -0.1011568839         -0.3016
H353       H    1.1934672742    0.5984874922   -0.0527533137         -0.2554
C328       C    1.0000000000    0.5000000000   -0.1955382816          0.6826
C329       C    0.9577388433    0.5123192663   -0.2243276363         -0.3066
C330       C    0.9577781776    0.5112527950   -0.2769463295          0.6905
C331       C    1.0000000000    0.5000000000   -0.3044617184          0.6786
C332       C    1.0395227138    0.4866731038   -0.2744636621          0.6669
C333       C    1.0385673452    0.4804150288   -0.2234227217          0.6631
Cl334     Cl    0.9037190276    0.5299185219   -0.3102579173         -0.2929
N335       N    0.9143437593    0.5285358000   -0.2019269026         -0.2903
Cl336     Cl    1.0949737656    0.4593301464   -0.1955839530           0.644
O337       O    1.0696666884    0.5249485090   -0.2772816024         -0.2985
H338       H    1.0414708306    0.5381820434   -0.2548425689         -0.2852
H339       H    0.8801749393    0.5163166632   -0.2159274591         -0.3016
H340       H    0.9100146902    0.5662219166   -0.1934672742         -0.2554
C315       C    1.0000000000    0.5000000000    0.1955382816          0.6826
C316       C    1.0420708054    0.5129544211    0.2243276363         -0.3066
C317       C    1.0420475391    0.5118874783    0.2769463295          0.6905
C318       C    1.0000000000    0.5000000000    0.3044617184          0.6786
C319       C    0.9606825042    0.4860793107    0.2744636621          0.6669
C320       C    0.9617320258    0.4798363357    0.2234227217          0.6631
Cl321     Cl    1.0958194067    0.5313653456    0.3102579173         -0.2929
N322       N    1.0852167074    0.5298227471    0.2019269026         -0.2903
Cl323     Cl    0.9056495922    0.4579042320    0.1955839530           0.644
O324       O    0.9299654316    0.5238963347    0.2772816024         -0.2985
H325       H    0.9579587627    0.5375530637    0.2548425689         -0.2852
H326       H    1.1195657000    0.5181196593    0.2159274591         -0.3016
H327       H    1.0889776438    0.5675697945    0.1934672742         -0.2554
C302       C    1.0000000000   -0.1955382816    0.5000000000          0.6826
C303       C    1.0133869998   -0.2243276363    0.4580648366         -0.3066
C304       C    1.0123198740   -0.2769463295    0.4580771138          0.6905
C305       C    1.0000000000   -0.3044617184    0.5000000000          0.6786
C306       C    0.9856751381   -0.2744636621    0.5391720487          0.6669
C307       C    0.9794433027   -0.2234227217    0.5380582896          0.6631
Cl308     Cl    1.0323504773   -0.3102579173    0.4045086903         -0.2929
N309       N    1.0306987688   -0.2019269026    0.4150949409         -0.2903
Cl310     Cl    0.9569347978   -0.1955839530    0.5939118816           0.644
O311       O    1.0231738173   -0.2772816024    0.5702769505         -0.2985
H312       H    1.0371181110   -0.2548425689    0.5424257476         -0.2852
H313       H    1.0193500443   -0.2159274591    0.3806272458         -0.3016
H314       H    1.0684825464   -0.1934672742    0.4117229415         -0.2554
C289       C    1.0000000000    0.1955382816    0.5000000000          0.6826
C290       C    1.0133869998    0.2243276363    0.5419351634         -0.3066
C291       C    1.0123198740    0.2769463295    0.5419228862          0.6905
C292       C    1.0000000000    0.3044617184    0.5000000000          0.6786
C293       C    0.9856751381    0.2744636621    0.4608279513          0.6669
C294       C    0.9794433027    0.2234227217    0.4619417104          0.6631
Cl295     Cl    1.0323504773    0.3102579173    0.5954913097         -0.2929
N296       N    1.0306987688    0.2019269026    0.5849050591         -0.2903
Cl297     Cl    0.9569347978    0.1955839530    0.4060881184           0.644
O298       O    1.0231738173    0.2772816024    0.4297230495         -0.2985
H299       H    1.0371181110    0.2548425689    0.4575742524         -0.2852
H300       H    1.0193500443    0.2159274591    0.6193727542         -0.3016
H301       H    1.0684825464    0.1934672742    0.5882770585         -0.2554
C276       C    0.8044617184   -0.0000000000    0.5000000000          0.6826
C277       C    0.7756723637   -0.0419686781    0.5132815567         -0.3066
C278       C    0.7230536705   -0.0419537188    0.5122144652          0.6905
C279       C    0.6955382816   -0.0000000000    0.5000000000          0.6786
C280       C    0.7255363379    0.0392079294    0.4857736393          0.6669
C281       C    0.7765772783    0.0381098371    0.4795390242          0.6631
Cl282     Cl    0.6897420827   -0.0955723185    0.5321103651         -0.2929
N283       N    0.7980730974   -0.0849819499    0.5304852696         -0.2903
Cl284     Cl    0.8044160470    0.0940198260    0.4571709741           0.644
O285       O    0.7227183976    0.0702184829    0.5233503798         -0.2985
H286       H    0.7451574311    0.0423323201    0.5372246276         -0.2852
H287       H    0.7840725409   -0.1194210120    0.5190499490         -0.3016
H288       H    0.8065327258   -0.0884489053    0.5682604525         -0.2554
C263       C    1.3044617184   -0.0000000000    0.5000000000          0.6826
C264       C    1.2756723637    0.0365850669    0.4755193430         -0.3066
C265       C    1.2230536705    0.0368689048    0.4765481015          0.6905
C266       C    1.1955382816   -0.0000000000    0.5000000000          0.6786
C267       C    1.2255363379   -0.0336702800    0.5246163221          0.6669
C268       C    1.2765772783   -0.0308736587    0.5302956830          0.6631
Cl269     Cl    1.1897420827    0.0827913621    0.4424610223         -0.2929
N270       N    1.2980730974    0.0730770549    0.4469808761         -0.2903
Cl271     Cl    1.3044160470   -0.0783053673    0.5673967550           0.644
O272       O    1.2227183976   -0.0739462661    0.4972026249         -0.2985
H273       H    1.2451574311   -0.0510482900    0.4760882809         -0.2852
H274       H    1.2840725409    0.1093396769    0.4483365340         -0.3016
H275       H    1.3065327258    0.0658495241    0.4097418237         -0.2554
C250       C   -0.0000000000   -0.3044617184    0.0000000000          0.6826
C251       C   -0.0058303354   -0.2756723637   -0.0436322917         -0.3066
C252       C   -0.0047818777   -0.2230536705   -0.0434331824          0.6905
C253       C   -0.0000000000   -0.1955382816    0.0000000000          0.6786
C254       C    0.0072379394   -0.2255363379    0.0410763107          0.6669
C255       C    0.0135685170   -0.2765772783    0.0410719680          0.6631
Cl256     Cl   -0.0151141701   -0.1897420827   -0.0996830250         -0.2929
N257       N   -0.0153433497   -0.2980730974   -0.0889711475         -0.2903
Cl258     Cl    0.0259398657   -0.3044160470    0.1000058824           0.644
O259       O   -0.0351317355   -0.2227183976    0.0651278492         -0.2985
H260       H   -0.0439790644   -0.2451574311    0.0352638642         -0.2852
H261       H    0.0018704610   -0.2840725409   -0.1209164176         -0.3016
H262       H   -0.0519513616   -0.3065327258   -0.0989128619         -0.2554
C237       C    0.0000000000    0.1955382816    0.0000000000          0.6826
C238       C   -0.0180758323    0.2243276363   -0.0401376877         -0.3066
C239       C   -0.0170142515    0.2769463295   -0.0402470239          0.6905
C240       C    0.0000000000    0.3044617184    0.0000000000          0.6786
C241       C    0.0186929051    0.2744636621    0.0372857394          0.6669
C242       C    0.0247573488    0.2234227217    0.0354694924          0.6631
Cl243     Cl   -0.0430153559    0.3102579173   -0.0911856500         -0.2929
N244       N   -0.0401687416    0.2019269026   -0.0808563891         -0.2903
Cl245     Cl    0.0534804870    0.1955839530    0.0883962140           0.644
O246       O   -0.0150192983    0.2772816024    0.0724589281         -0.2985
H247       H   -0.0320447968    0.2548425689    0.0463770334         -0.2852
H248       H   -0.0328193326    0.2159274591   -0.1163923111         -0.3016
H249       H   -0.0780907123    0.1934672742   -0.0799033095         -0.2554
C224       C   -0.3044617184   -0.0000000000    0.0000000000          0.6826
C225       C   -0.2756723637    0.0410506900   -0.0158937266         -0.3066
C226       C   -0.2230536705    0.0403714542   -0.0167168589          0.6905
C227       C   -0.1955382816   -0.0000000000    0.0000000000          0.6786
C228       C   -0.2255363379   -0.0394879567    0.0134295324          0.6669
C229       C   -0.2765772783   -0.0425316142    0.0078786423          0.6631
Cl230     Cl   -0.1897420827    0.0946487117   -0.0347385230         -0.2929
N231       N   -0.2980730974    0.0853699936   -0.0293810764         -0.2903
Cl232     Cl   -0.3044160470   -0.1001430582    0.0254051378           0.644
O233       O   -0.2227183976   -0.0401730623    0.0621449970         -0.2985
H234       H   -0.2451574311   -0.0097380538    0.0555235854         -0.2852
H235       H   -0.2840725409    0.1050837454   -0.0598471813         -0.3016
H236       H   -0.3065327258    0.1117066385   -0.0020796962         -0.2554
C211       C    0.3044617184   -0.0000000000    0.0000000000          0.6826
C212       C    0.2756723637   -0.0402842231   -0.0177468605         -0.3066
C213       C    0.2230536705   -0.0395682031   -0.0185382034          0.6905
C214       C    0.1955382816   -0.0000000000    0.0000000000          0.6786
C215       C    0.2255363379    0.0388353416    0.0152140498          0.6669
C216       C    0.2765772783    0.0421286523    0.0098075411          0.6631
Cl217     Cl    0.1897420827   -0.0929683533   -0.0390131886         -0.2929
N218       N    0.2980730974   -0.0839432650   -0.0332387082         -0.2903
Cl219     Cl    0.3044160470    0.0988820813    0.0299397249           0.644
O220       O    0.2227183976    0.0373010225    0.0639101658         -0.2985
H221       H    0.2451574311    0.0071991637    0.0559094828         -0.2852
H222       H    0.2840725409   -0.1022490015   -0.0645710489         -0.3016
H223       H    0.3065327258   -0.1114960042   -0.0071651433         -0.2554
C198       C    0.0000000000    0.0000000000   -0.1955382816          0.6826
C199       C   -0.0318242053   -0.0304136425   -0.2243276363         -0.3066
C200       C   -0.0308813545   -0.0309135832   -0.2769463295          0.6905
C201       C    0.0000000000    0.0000000000   -0.3044617184          0.6786
C202       C    0.0313252706    0.0275386725   -0.2744636621          0.6669
C203       C    0.0362640080    0.0235782300   -0.2234227217          0.6631
Cl204     Cl   -0.0741064971   -0.0683620559   -0.3102579173         -0.2929
N205       N   -0.0675897167   -0.0598574445   -0.2019269026         -0.2903
Cl206     Cl    0.0827585065    0.0618472532   -0.1955839530           0.644
O207       O    0.0132867110    0.0727965582   -0.2772816024         -0.2985
H208       H   -0.0122863132    0.0550158589   -0.2548425689         -0.2852
H209       H   -0.0741211747   -0.0955527609   -0.2159274591         -0.3016
H210       H   -0.1023790567   -0.0447350754   -0.1934672742         -0.2554
C185       C   -0.0000000000    0.0000000000    0.1955382816          0.6826
C186       C    0.0238745190   -0.0369834698    0.2243276363         -0.3066
C187       C    0.0228412232   -0.0372503182    0.2769463295          0.6905
C188       C    0.0000000000    0.0000000000    0.3044617184          0.6786
C189       C   -0.0240581927    0.0340713139    0.2744636621          0.6669
C190       C   -0.0297828628    0.0313686514    0.2234227217          0.6631
Cl191     Cl    0.0561670074   -0.0837281964    0.3102579173         -0.2929
N192       N    0.0518078306   -0.0739407341    0.2019269026         -0.2903
Cl193     Cl   -0.0660973625    0.0794052379    0.1955839530           0.644
O194       O    0.0040154131    0.0738901349    0.2772816024         -0.2985
H195       H    0.0247495992    0.0506473648    0.2548425689         -0.2852
H196       H    0.0498548550   -0.1101760959    0.2159274591         -0.3016
H197       H    0.0891609161   -0.0673277749    0.1934672742         -0.2554
loop_
_geom_bond_atom_site_label_1
_geom_bond_atom_site_label_2
_geom_bond_distance
_geom_bond_site_symmetry_2
_ccdc_geom_bond_type
Zn1          O5 1.942       .   S
Zn1          O6 1.922       .   S
Zn1         O10 1.922       .   S
Zn1         O17 1.922       .   S
Zn2          O5 1.942       .   S
Zn2          O7 1.922       .   S
Zn2          O9 1.922       .   S
Zn2         O13 1.922       .   S
Zn3          O5 1.942       .   S
Zn3          O8 1.922       .   S
Zn3         O11 1.922       .   S
Zn3         O14 1.922       .   S
Zn4          O5 1.942       .   S
Zn4         O12 1.922       .   S
Zn4         O15 1.922       .   S
Zn4         O16 1.922       .   S
O6          C18 1.304       .   A
O7          C19 1.304       .   A
O8          C20 1.304       .   A
O9          C18 1.304       .   A
O10         C20 1.304       .   A
O11         C19 1.304       .   A
O12         C21 1.304       .   A
O13         C22 1.304       .   A
O14         C21 1.304       .   A
O15         C22 1.304       .   A
O16         C23 1.304       .   A
O17         C23 1.304       .   A
C18        C185 1.540       .   S
C19        C214 1.540       .   S
C20        C253 1.540       .   S
C21        C198 1.540       .   S
C22        C237 1.540       .   S
C23        C227 1.540       .   S
Zn24        O28 1.942       .   S
Zn24        O29 1.922       .   S
Zn24        O33 1.922       .   S
Zn24        O40 1.922       .   S
Zn25        O28 1.942       .   S
Zn25        O30 1.922       .   S
Zn25        O32 1.922       .   S
Zn25        O36 1.922       .   S
Zn26        O28 1.942       .   S
Zn26        O31 1.922       .   S
Zn26        O34 1.922       .   S
Zn26        O37 1.922       .   S
Zn27        O28 1.942       .   S
Zn27        O35 1.922       .   S
Zn27        O38 1.922       .   S
Zn27        O39 1.922       .   S
O29         C41 1.304       .   A
O30         C42 1.304       .   A
O31         C43 1.304       .   A
O32         C41 1.304       .   A
O33         C43 1.304       .   A
O34         C42 1.304       .   A
O35         C44 1.304       .   A
O36         C45 1.304       .   A
O37         C44 1.304       .   A
O38         C45 1.304       .   A
O39         C46 1.304       .   A
O40         C46 1.304       .   A
C41        C201 1.540   1_656   S
C42        C276 1.540       .   S
C43        C289 1.540       .   S
C44        C188 1.540   1_655   S
C45        C302 1.540       .   S
C46        C266 1.540       .   S
Zn47        O51 1.942       .   S
Zn47        O52 1.922       .   S
Zn47        O56 1.922       .   S
Zn47        O63 1.922       .   S
Zn48        O51 1.942       .   S
Zn48        O53 1.922       .   S
Zn48        O55 1.922       .   S
Zn48        O59 1.922       .   S
Zn49        O51 1.942       .   S
Zn49        O54 1.922       .   S
Zn49        O57 1.922       .   S
Zn49        O60 1.922       .   S
Zn50        O51 1.942       .   S
Zn50        O58 1.922       .   S
Zn50        O61 1.922       .   S
Zn50        O62 1.922       .   S
O52         C64 1.304       .   A
O53         C65 1.304       .   A
O54         C66 1.304       .   A
O55         C64 1.304       .   A
O56         C66 1.304       .   A
O57         C65 1.304       .   A
O58         C67 1.304       .   A
O59         C68 1.304       .   A
O60         C67 1.304       .   A
O61         C68 1.304       .   A
O62         C69 1.304       .   A
O63         C69 1.304       .   A
C64        C240 1.540   1_655   S
C65        C315 1.540       .   S
C66        C341 1.540       .   S
C67        C250 1.540   1_665   S
C68        C354 1.540       .   S
C69        C328 1.540       .   S
Zn70        O74 1.942       .   S
Zn70        O75 1.922       .   S
Zn70        O79 1.922       .   S
Zn70        O86 1.922       .   S
Zn71        O74 1.942       .   S
Zn71        O76 1.922       .   S
Zn71        O78 1.922       .   S
Zn71        O82 1.922       .   S
Zn72        O74 1.942       .   S
Zn72        O77 1.922       .   S
Zn72        O80 1.922       .   S
Zn72        O83 1.922       .   S
Zn73        O74 1.942       .   S
Zn73        O81 1.922       .   S
Zn73        O84 1.922       .   S
Zn73        O85 1.922       .   S
O75         C87 1.304       .   A
O76         C88 1.304       .   A
O77         C89 1.304       .   A
O78         C87 1.304       .   A
O79         C89 1.304       .   A
O80         C88 1.304       .   A
O81         C90 1.304       .   A
O82         C91 1.304       .   A
O83         C90 1.304       .   A
O84         C91 1.304       .   A
O85         C92 1.304       .   A
O86         C92 1.304       .   A
C87        C292 1.540       .   S
C88        C318 1.540       .   S
C89        C380 1.540       .   S
C90        C305 1.540   1_565   S
C91        C367 1.540       .   S
C92        C331 1.540   1_556   S
Zn93        O97 1.942       .   S
Zn93        O98 1.922       .   S
Zn93       O102 1.922       .   S
Zn93       O109 1.922       .   S
Zn94        O97 1.942       .   S
Zn94        O99 1.922       .   S
Zn94       O101 1.922       .   S
Zn94       O105 1.922       .   S
Zn95        O97 1.942       .   S
Zn95       O100 1.922       .   S
Zn95       O103 1.922       .   S
Zn95       O106 1.922       .   S
Zn96        O97 1.942       .   S
Zn96       O104 1.922       .   S
Zn96       O107 1.922       .   S
Zn96       O108 1.922       .   S
O98        C110 1.304       .   A
O99        C111 1.304       .   A
O100       C112 1.304       .   A
O101       C110 1.304       .   A
O102       C112 1.304       .   A
O103       C111 1.304       .   A
O104       C113 1.304       .   A
O105       C114 1.304       .   A
O106       C113 1.304       .   A
O107       C114 1.304       .   A
O108       C115 1.304       .   A
O109       C115 1.304       .   A
C110       C419 1.540       .   S
C111       C211 1.540   1_565   S
C112       C406 1.540       .   S
C113       C432 1.540       .   S
C114       C393 1.540       .   S
C115       C224 1.540   1_665   S
Zn116      O120 1.942       .   S
Zn116      O121 1.922       .   S
Zn116      O125 1.922       .   S
Zn116      O132 1.922       .   S
Zn117      O120 1.942       .   S
Zn117      O122 1.922       .   S
Zn117      O124 1.922       .   S
Zn117      O128 1.922       .   S
Zn118      O120 1.942       .   S
Zn118      O123 1.922       .   S
Zn118      O126 1.922       .   S
Zn118      O129 1.922       .   S
Zn119      O120 1.942       .   S
Zn119      O127 1.922       .   S
Zn119      O130 1.922       .   S
Zn119      O131 1.922       .   S
O121       C133 1.304       .   A
O122       C134 1.304       .   A
O123       C135 1.304       .   A
O124       C133 1.304       .   A
O125       C135 1.304       .   A
O126       C134 1.304       .   A
O127       C136 1.304       .   A
O128       C137 1.304       .   A
O129       C136 1.304       .   A
O130       C137 1.304       .   A
O131       C138 1.304       .   A
O132       C138 1.304       .   A
C133       C263 1.540   1_465   S
C134       C409 1.540   1_556   S
C135       C458 1.540       .   S
C136       C279 1.540   1_565   S
C137       C445 1.540       .   S
C138       C396 1.540       .   S
Zn139      O143 1.942       .   S
Zn139      O144 1.922       .   S
Zn139      O148 1.922       .   S
Zn139      O155 1.922       .   S
Zn140      O143 1.942       .   S
Zn140      O145 1.922       .   S
Zn140      O147 1.922       .   S
Zn140      O151 1.922       .   S
Zn141      O143 1.942       .   S
Zn141      O146 1.922       .   S
Zn141      O149 1.922       .   S
Zn141      O152 1.922       .   S
Zn142      O143 1.942       .   S
Zn142      O150 1.922       .   S
Zn142      O153 1.922       .   S
Zn142      O154 1.922       .   S
O144       C156 1.304       .   A
O145       C157 1.304       .   A
O146       C158 1.304       .   A
O147       C156 1.304       .   A
O148       C158 1.304       .   A
O149       C157 1.304       .   A
O150       C159 1.304       .   A
O151       C160 1.304       .   A
O152       C159 1.304       .   A
O153       C160 1.304       .   A
O154       C161 1.304       .   A
O155       C161 1.304       .   A
C156       C435 1.540       .   S
C157       C344 1.540   1_455   S
C158       C484 1.540       .   S
C159       C422 1.540   1_545   S
C160       C471 1.540       .   S
C161       C357 1.540       .   S
Zn162      O166 1.942       .   S
Zn162      O167 1.922       .   S
Zn162      O171 1.922       .   S
Zn162      O178 1.922       .   S
Zn163      O166 1.942       .   S
Zn163      O168 1.922       .   S
Zn163      O170 1.922       .   S
Zn163      O174 1.922       .   S
Zn164      O166 1.942       .   S
Zn164      O169 1.922       .   S
Zn164      O172 1.922       .   S
Zn164      O175 1.922       .   S
Zn165      O166 1.942       .   S
Zn165      O173 1.922       .   S
Zn165      O176 1.922       .   S
Zn165      O177 1.922       .   S
O167       C179 1.304       .   A
O168       C180 1.304       .   A
O169       C181 1.304       .   A
O170       C179 1.304       .   A
O171       C181 1.304       .   A
O172       C180 1.304       .   A
O173       C182 1.304       .   A
O174       C183 1.304       .   A
O175       C182 1.304       .   A
O176       C183 1.304       .   A
O177       C184 1.304       .   A
O178       C184 1.304       .   A
C179       C370 1.540   1_455   S
C180       C448 1.540   1_545   S
C181       C474 1.540       .   S
C182       C383 1.540       .   S
C183       C487 1.540   1_556   S
C184       C461 1.540       .   S
C484       C485 0.048       .   A
C484       C489 0.047       .   A
C485       C486 0.048       .   A
C485       N491 0.047       .   A
C486       C487 0.047       .   A
C486      Cl490 0.061       .   A
C487       C488 0.047       .   A
C488       C489 0.047       .   A
C488       O493 0.045       .   A
C489      Cl492 0.061       .   A
N491       H495 0.036       .   A
N491       H496 0.036       .   A
O493       H494 0.035       .   A
C471       C472 0.048       .   A
C471       C476 0.047       .   A
C472       C473 0.048       .   A
C472       N478 0.047       .   A
C473       C474 0.047       .   A
C473      Cl477 0.061       .   A
C474       C475 0.047       .   A
C475       C476 0.047       .   A
C475       O480 0.045       .   A
C476      Cl479 0.061       .   A
N478       H482 0.036       .   A
N478       H483 0.036       .   A
O480       H481 0.035       .   A
C458       C459 0.048       .   A
C458       C463 0.047       .   A
C459       C460 0.048       .   A
C459       N465 0.047       .   A
C460       C461 0.047       .   A
C460      Cl464 0.061       .   A
C461       C462 0.047       .   A
C462       C463 0.047       .   A
C462       O467 0.045       .   A
C463      Cl466 0.061       .   A
N465       H469 0.036       .   A
N465       H470 0.036       .   A
O467       H468 0.035       .   A
C445       C446 0.048       .   A
C445       C450 0.047       .   A
C446       C447 0.048       .   A
C446       N452 0.047       .   A
C447       C448 0.047       .   A
C447      Cl451 0.061       .   A
C448       C449 0.047       .   A
C449       C450 0.047       .   A
C449       O454 0.045       .   A
C450      Cl453 0.061       .   A
N452       H456 0.036       .   A
N452       H457 0.036       .   A
O454       H455 0.035       .   A
C432       C433 0.048       .   A
C432       C437 0.047       .   A
C433       C434 0.048       .   A
C433       N439 0.047       .   A
C434       C435 0.047       .   A
C434      Cl438 0.061       .   A
C435       C436 0.047       .   A
C436       C437 0.047       .   A
C436       O441 0.045       .   A
C437      Cl440 0.061       .   A
N439       H443 0.036       .   A
N439       H444 0.036       .   A
O441       H442 0.035       .   A
C419       C420 0.048       .   A
C419       C424 0.047       .   A
C420       C421 0.048       .   A
C420       N426 0.047       .   A
C421       C422 0.047       .   A
C421      Cl425 0.061       .   A
C422       C423 0.047       .   A
C423       C424 0.047       .   A
C423       O428 0.045       .   A
C424      Cl427 0.061       .   A
N426       H430 0.036       .   A
N426       H431 0.036       .   A
O428       H429 0.035       .   A
C406       C407 0.048       .   A
C406       C411 0.047       .   A
C407       C408 0.048       .   A
C407       N413 0.047       .   A
C408       C409 0.047       .   A
C408      Cl412 0.061       .   A
C409       C410 0.047       .   A
C410       C411 0.047       .   A
C410       O415 0.045       .   A
C411      Cl414 0.061       .   A
N413       H417 0.036       .   A
N413       H418 0.036       .   A
O415       H416 0.035       .   A
C393       C394 0.048       .   A
C393       C398 0.047       .   A
C394       C395 0.048       .   A
C394       N400 0.047       .   A
C395       C396 0.047       .   A
C395      Cl399 0.061       .   A
C396       C397 0.047       .   A
C397       C398 0.047       .   A
C397       O402 0.045       .   A
C398      Cl401 0.061       .   A
N400       H404 0.036       .   A
N400       H405 0.036       .   A
O402       H403 0.035       .   A
C380       C381 0.048       .   A
C380       C385 0.047       .   A
C381       C382 0.048       .   A
C381       N387 0.047       .   A
C382       C383 0.047       .   A
C382      Cl386 0.061       .   A
C383       C384 0.047       .   A
C384       C385 0.047       .   A
C384       O389 0.045       .   A
C385      Cl388 0.061       .   A
N387       H391 0.036       .   A
N387       H392 0.036       .   A
O389       H390 0.035       .   A
C367       C368 0.048       .   A
C367       C372 0.047       .   A
C368       C369 0.048       .   A
C368       N374 0.047       .   A
C369       C370 0.047       .   A
C369      Cl373 0.061       .   A
C370       C371 0.047       .   A
C371       C372 0.047       .   A
C371       O376 0.045       .   A
C372      Cl375 0.061       .   A
N374       H378 0.036       .   A
N374       H379 0.036       .   A
O376       H377 0.035       .   A
C354       C355 0.048       .   A
C354       C359 0.047       .   A
C355       C356 0.048       .   A
C355       N361 0.047       .   A
C356       C357 0.047       .   A
C356      Cl360 0.061       .   A
C357       C358 0.047       .   A
C358       C359 0.047       .   A
C358       O363 0.045       .   A
C359      Cl362 0.061       .   A
N361       H365 0.036       .   A
N361       H366 0.036       .   A
O363       H364 0.035       .   A
C341       C342 0.048       .   A
C341       C346 0.047       .   A
C342       C343 0.048       .   A
C342       N348 0.047       .   A
C343       C344 0.047       .   A
C343      Cl347 0.061       .   A
C344       C345 0.047       .   A
C345       C346 0.047       .   A
C345       O350 0.045       .   A
C346      Cl349 0.061       .   A
N348       H352 0.036       .   A
N348       H353 0.036       .   A
O350       H351 0.035       .   A
C328       C329 0.048       .   A
C328       C333 0.047       .   A
C329       C330 0.048       .   A
C329       N335 0.047       .   A
C330       C331 0.047       .   A
C330      Cl334 0.061       .   A
C331       C332 0.047       .   A
C332       C333 0.047       .   A
C332       O337 0.045       .   A
C333      Cl336 0.061       .   A
N335       H339 0.036       .   A
N335       H340 0.036       .   A
O337       H338 0.035       .   A
C315       C316 0.048       .   A
C315       C320 0.047       .   A
C316       C317 0.048       .   A
C316       N322 0.047       .   A
C317       C318 0.047       .   A
C317      Cl321 0.061       .   A
C318       C319 0.047       .   A
C319       C320 0.047       .   A
C319       O324 0.045       .   A
C320      Cl323 0.061       .   A
N322       H326 0.036       .   A
N322       H327 0.036       .   A
O324       H325 0.035       .   A
C302       C303 0.048       .   A
C302       C307 0.047       .   A
C303       C304 0.048       .   A
C303       N309 0.047       .   A
C304       C305 0.047       .   A
C304      Cl308 0.061       .   A
C305       C306 0.047       .   A
C306       C307 0.047       .   A
C306       O311 0.045       .   A
C307      Cl310 0.061       .   A
N309       H313 0.036       .   A
N309       H314 0.036       .   A
O311       H312 0.035       .   A
C289       C290 0.048       .   A
C289       C294 0.047       .   A
C290       C291 0.048       .   A
C290       N296 0.047       .   A
C291       C292 0.047       .   A
C291      Cl295 0.061       .   A
C292       C293 0.047       .   A
C293       C294 0.047       .   A
C293       O298 0.045       .   A
C294      Cl297 0.061       .   A
N296       H300 0.036       .   A
N296       H301 0.036       .   A
O298       H299 0.035       .   A
C276       C277 0.048       .   A
C276       C281 0.047       .   A
C277       C278 0.048       .   A
C277       N283 0.047       .   A
C278       C279 0.047       .   A
C278      Cl282 0.061       .   A
C279       C280 0.047       .   A
C280       C281 0.047       .   A
C280       O285 0.045       .   A
C281      Cl284 0.061       .   A
N283       H287 0.036       .   A
N283       H288 0.036       .   A
O285       H286 0.035       .   A
C263       C264 0.048       .   A
C263       C268 0.047       .   A
C264       C265 0.048       .   A
C264       N270 0.047       .   A
C265       C266 0.047       .   A
C265      Cl269 0.061       .   A
C266       C267 0.047       .   A
C267       C268 0.047       .   A
C267       O272 0.045       .   A
C268      Cl271 0.061       .   A
N270       H274 0.036       .   A
N270       H275 0.036       .   A
O272       H273 0.035       .   A
C250       C251 0.048       .   A
C250       C255 0.047       .   A
C251       C252 0.048       .   A
C251       N257 0.047       .   A
C252       C253 0.047       .   A
C252      Cl256 0.061       .   A
C253       C254 0.047       .   A
C254       C255 0.047       .   A
C254       O259 0.045       .   A
C255      Cl258 0.061       .   A
N257       H261 0.036       .   A
N257       H262 0.036       .   A
O259       H260 0.035       .   A
C237       C238 0.048       .   A
C237       C242 0.047       .   A
C238       C239 0.048       .   A
C238       N244 0.047       .   A
C239       C240 0.047       .   A
C239      Cl243 0.061       .   A
C240       C241 0.047       .   A
C241       C242 0.047       .   A
C241       O246 0.045       .   A
C242      Cl245 0.061       .   A
N244       H248 0.036       .   A
N244       H249 0.036       .   A
O246       H247 0.035       .   A
C224       C225 0.048       .   A
C224       C229 0.047       .   A
C225       C226 0.048       .   A
C225       N231 0.047       .   A
C226       C227 0.047       .   A
C226      Cl230 0.061       .   A
C227       C228 0.047       .   A
C228       C229 0.047       .   A
C228       O233 0.045       .   A
C229      Cl232 0.061       .   A
N231       H235 0.036       .   A
N231       H236 0.036       .   A
O233       H234 0.035       .   A
C211       C212 0.048       .   A
C211       C216 0.047       .   A
C212       C213 0.048       .   A
C212       N218 0.047       .   A
C213       C214 0.047       .   A
C213      Cl217 0.061       .   A
C214       C215 0.047       .   A
C215       C216 0.047       .   A
C215       O220 0.045       .   A
C216      Cl219 0.061       .   A
N218       H222 0.036       .   A
N218       H223 0.036       .   A
O220       H221 0.035       .   A
C198       C199 0.048       .   A
C198       C203 0.047       .   A
C199       C200 0.048       .   A
C199       N205 0.047       .   A
C200       C201 0.047       .   A
C200      Cl204 0.061       .   A
C201       C202 0.047       .   A
C202       C203 0.047       .   A
C202       O207 0.045       .   A
C203      Cl206 0.061       .   A
N205       H209 0.036       .   A
N205       H210 0.036       .   A
O207       H208 0.035       .   A
C185       C186 0.048       .   A
C185       C190 0.047       .   A
C186       C187 0.048       .   A
C186       N192 0.047       .   A
C187       C188 0.047       .   A
C187      Cl191 0.061       .   A
C188       C189 0.047       .   A
C189       C190 0.047       .   A
C189       O194 0.045       .   A
C190      Cl193 0.061       .   A
N192       H196 0.036       .   A
N192       H197 0.036       .   A
O194       H195 0.035       .   A
