data_pcu_v1-6c_Zn_1_Ch_13_BOND_CHECK
_audit_creation_date              2020-11-11
_audit_creation_method            'tobacco_3.0'
_symmetry_space_group_name_H-M    'P1'
_symmetry_Int_Tables_number       1
_symmetry_cell_setting            triclinic
loop_
_symmetry_equiv_pos_as_xyz
  x,y,z
_cell_length_a                    32.871994754792595
_cell_length_b                    32.871994754792595
_cell_length_c                    32.871994754792595
_cell_angle_alpha                 90.0
_cell_angle_beta                  90.0
_cell_angle_gamma                 90.0
loop_
_atom_site_label
_atom_site_type_symbol
_atom_site_fract_x
_atom_site_fract_y
_atom_site_fract_z
Zn1       Zn   -0.0341080609   -0.0341080609    0.0341080609
Zn2       Zn   -0.0341080609    0.0341080609   -0.0341080609
Zn3       Zn    0.0341080609    0.0341080609    0.0341080609
Zn4       Zn    0.0341080609   -0.0341080609   -0.0341080609
O5         O    0.0000000000    0.0000000000    0.0000000000
O6         O   -0.0911596641   -0.0250669303    0.0250669303
O7         O   -0.0250669303    0.0911596641   -0.0250669303
O8         O    0.0250669303    0.0250669303    0.0911596641
O9         O   -0.0911596641    0.0250669303   -0.0250669303
O10        O   -0.0250669303   -0.0250669303    0.0911596641
O11        O    0.0250669303    0.0911596641    0.0250669303
O12        O    0.0911596641   -0.0250669303   -0.0250669303
O13        O   -0.0250669303    0.0250669303   -0.0911596641
O14        O    0.0911596641    0.0250669303    0.0250669303
O15        O    0.0250669303   -0.0250669303   -0.0911596641
O16        O    0.0250669303   -0.0911596641   -0.0250669303
O17        O   -0.0250669303   -0.0911596641    0.0250669303
C18        C   -0.1089924730   -0.0000000000    0.0000000000
C19        C    0.0000000000    0.1089924730    0.0000000000
C20        C   -0.0000000000    0.0000000000    0.1089924730
C21        C    0.1089924730    0.0000000000   -0.0000000000
C22        C    0.0000000000   -0.0000000000   -0.1089924730
C23        C   -0.0000000000   -0.1089924730   -0.0000000000
Zn24      Zn    0.9658919391    0.0341080609    0.4658919391
Zn25      Zn    1.0341080609   -0.0341080609    0.4658919391
Zn26      Zn    1.0341080609    0.0341080609    0.5341080609
Zn27      Zn    0.9658919391   -0.0341080609    0.5341080609
O28        O    1.0000000000    0.0000000000    0.5000000000
O29        O    0.9749330697    0.0250669303    0.4088403359
O30        O    1.0911596641   -0.0250669303    0.4749330697
O31        O    1.0250669303    0.0911596641    0.5250669303
O32        O    1.0250669303   -0.0250669303    0.4088403359
O33        O    0.9749330697    0.0911596641    0.4749330697
O34        O    1.0911596641    0.0250669303    0.5250669303
O35        O    0.9749330697   -0.0250669303    0.5911596641
O36        O    1.0250669303   -0.0911596641    0.4749330697
O37        O    1.0250669303    0.0250669303    0.5911596641
O38        O    0.9749330697   -0.0911596641    0.5250669303
O39        O    0.9088403359   -0.0250669303    0.5250669303
O40        O    0.9088403359    0.0250669303    0.4749330697
C41        C    1.0000000000    0.0000000000    0.3910075270
C42        C    1.1089924730    0.0000000000    0.5000000000
C43        C    1.0000000000    0.1089924730    0.5000000000
C44        C    1.0000000000    0.0000000000    0.6089924730
C45        C    1.0000000000   -0.1089924730    0.5000000000
C46        C    0.8910075270    0.0000000000    0.5000000000
Zn47      Zn    0.9658919391    0.5341080609   -0.0341080609
Zn48      Zn    1.0341080609    0.5341080609    0.0341080609
Zn49      Zn    0.9658919391    0.4658919391    0.0341080609
Zn50      Zn    1.0341080609    0.4658919391   -0.0341080609
O51        O    1.0000000000    0.5000000000    0.0000000000
O52        O    0.9749330697    0.5911596641   -0.0250669303
O53        O    1.0250669303    0.5250669303    0.0911596641
O54        O    0.9088403359    0.4749330697    0.0250669303
O55        O    1.0250669303    0.5911596641    0.0250669303
O56        O    0.9088403359    0.5250669303   -0.0250669303
O57        O    0.9749330697    0.4749330697    0.0911596641
O58        O    1.0250669303    0.4088403359   -0.0250669303
O59        O    1.0911596641    0.5250669303    0.0250669303
O60        O    0.9749330697    0.4088403359    0.0250669303
O61        O    1.0911596641    0.4749330697   -0.0250669303
O62        O    1.0250669303    0.4749330697   -0.0911596641
O63        O    0.9749330697    0.5250669303   -0.0911596641
C64        C    1.0000000000    0.6089924730    0.0000000000
C65        C    1.0000000000    0.5000000000    0.1089924730
C66        C    0.8910075270    0.5000000000    0.0000000000
C67        C    1.0000000000    0.3910075270    0.0000000000
C68        C    1.1089924730    0.5000000000    0.0000000000
C69        C    1.0000000000    0.5000000000   -0.1089924730
Zn70      Zn    0.9658919391    0.5341080609    0.4658919391
Zn71      Zn    0.9658919391    0.4658919391    0.5341080609
Zn72      Zn    1.0341080609    0.4658919391    0.4658919391
Zn73      Zn    1.0341080609    0.5341080609    0.5341080609
O74        O    1.0000000000    0.5000000000    0.5000000000
O75        O    0.9088403359    0.5250669303    0.4749330697
O76        O    0.9749330697    0.4088403359    0.5250669303
O77        O    1.0250669303    0.4749330697    0.4088403359
O78        O    0.9088403359    0.4749330697    0.5250669303
O79        O    0.9749330697    0.5250669303    0.4088403359
O80        O    1.0250669303    0.4088403359    0.4749330697
O81        O    1.0911596641    0.5250669303    0.5250669303
O82        O    0.9749330697    0.4749330697    0.5911596641
O83        O    1.0911596641    0.4749330697    0.4749330697
O84        O    1.0250669303    0.5250669303    0.5911596641
O85        O    1.0250669303    0.5911596641    0.5250669303
O86        O    0.9749330697    0.5911596641    0.4749330697
C87        C    0.8910075270    0.5000000000    0.5000000000
C88        C    1.0000000000    0.3910075270    0.5000000000
C89        C    1.0000000000    0.5000000000    0.3910075270
C90        C    1.1089924730    0.5000000000    0.5000000000
C91        C    1.0000000000    0.5000000000    0.6089924730
C92        C    1.0000000000    0.6089924730    0.5000000000
Zn93      Zn    0.4658919391    0.9658919391   -0.0341080609
Zn94      Zn    0.4658919391    1.0341080609    0.0341080609
Zn95      Zn    0.5341080609    0.9658919391    0.0341080609
Zn96      Zn    0.5341080609    1.0341080609   -0.0341080609
O97        O    0.5000000000    1.0000000000    0.0000000000
O98        O    0.4088403359    0.9749330697   -0.0250669303
O99        O    0.4749330697    1.0250669303    0.0911596641
O100       O    0.5250669303    0.9088403359    0.0250669303
O101       O    0.4088403359    1.0250669303    0.0250669303
O102       O    0.4749330697    0.9088403359   -0.0250669303
O103       O    0.5250669303    0.9749330697    0.0911596641
O104       O    0.5911596641    1.0250669303   -0.0250669303
O105       O    0.4749330697    1.0911596641    0.0250669303
O106       O    0.5911596641    0.9749330697    0.0250669303
O107       O    0.5250669303    1.0911596641   -0.0250669303
O108       O    0.5250669303    1.0250669303   -0.0911596641
O109       O    0.4749330697    0.9749330697   -0.0911596641
C110       C    0.3910075270    1.0000000000    0.0000000000
C111       C    0.5000000000    1.0000000000    0.1089924730
C112       C    0.5000000000    0.8910075270    0.0000000000
C113       C    0.6089924730    1.0000000000    0.0000000000
C114       C    0.5000000000    1.1089924730    0.0000000000
C115       C    0.5000000000    1.0000000000   -0.1089924730
Zn116     Zn    0.4658919391    1.0341080609    0.5341080609
Zn117     Zn    0.4658919391    0.9658919391    0.4658919391
Zn118     Zn    0.5341080609    1.0341080609    0.4658919391
Zn119     Zn    0.5341080609    0.9658919391    0.5341080609
O120       O    0.5000000000    1.0000000000    0.5000000000
O121       O    0.4088403359    1.0250669303    0.5250669303
O122       O    0.4749330697    0.9749330697    0.4088403359
O123       O    0.5250669303    1.0911596641    0.4749330697
O124       O    0.4088403359    0.9749330697    0.4749330697
O125       O    0.4749330697    1.0911596641    0.5250669303
O126       O    0.5250669303    1.0250669303    0.4088403359
O127       O    0.5911596641    0.9749330697    0.5250669303
O128       O    0.4749330697    0.9088403359    0.4749330697
O129       O    0.5911596641    1.0250669303    0.4749330697
O130       O    0.5250669303    0.9088403359    0.5250669303
O131       O    0.5250669303    0.9749330697    0.5911596641
O132       O    0.4749330697    1.0250669303    0.5911596641
C133       C    0.3910075270    1.0000000000    0.5000000000
C134       C    0.5000000000    1.0000000000    0.3910075270
C135       C    0.5000000000    1.1089924730    0.5000000000
C136       C    0.6089924730    1.0000000000    0.5000000000
C137       C    0.5000000000    0.8910075270    0.5000000000
C138       C    0.5000000000    1.0000000000    0.6089924730
Zn139     Zn    0.4658919391    0.5341080609   -0.0341080609
Zn140     Zn    0.4658919391    0.4658919391    0.0341080609
Zn141     Zn    0.5341080609    0.4658919391   -0.0341080609
Zn142     Zn    0.5341080609    0.5341080609    0.0341080609
O143       O    0.5000000000    0.5000000000    0.0000000000
O144       O    0.4088403359    0.5250669303   -0.0250669303
O145       O    0.4749330697    0.4088403359    0.0250669303
O146       O    0.5250669303    0.4749330697   -0.0911596641
O147       O    0.4088403359    0.4749330697    0.0250669303
O148       O    0.4749330697    0.5250669303   -0.0911596641
O149       O    0.5250669303    0.4088403359   -0.0250669303
O150       O    0.5911596641    0.5250669303    0.0250669303
O151       O    0.4749330697    0.4749330697    0.0911596641
O152       O    0.5911596641    0.4749330697   -0.0250669303
O153       O    0.5250669303    0.5250669303    0.0911596641
O154       O    0.5250669303    0.5911596641    0.0250669303
O155       O    0.4749330697    0.5911596641   -0.0250669303
C156       C    0.3910075270    0.5000000000    0.0000000000
C157       C    0.5000000000    0.3910075270    0.0000000000
C158       C    0.5000000000    0.5000000000   -0.1089924730
C159       C    0.6089924730    0.5000000000    0.0000000000
C160       C    0.5000000000    0.5000000000    0.1089924730
C161       C    0.5000000000    0.6089924730    0.0000000000
Zn162     Zn    0.4658919391    0.5341080609    0.4658919391
Zn163     Zn    0.4658919391    0.4658919391    0.5341080609
Zn164     Zn    0.5341080609    0.4658919391    0.4658919391
Zn165     Zn    0.5341080609    0.5341080609    0.5341080609
O166       O    0.5000000000    0.5000000000    0.5000000000
O167       O    0.4088403359    0.5250669303    0.4749330697
O168       O    0.4749330697    0.4088403359    0.5250669303
O169       O    0.5250669303    0.4749330697    0.4088403359
O170       O    0.4088403359    0.4749330697    0.5250669303
O171       O    0.4749330697    0.5250669303    0.4088403359
O172       O    0.5250669303    0.4088403359    0.4749330697
O173       O    0.5911596641    0.5250669303    0.5250669303
O174       O    0.4749330697    0.4749330697    0.5911596641
O175       O    0.5911596641    0.4749330697    0.4749330697
O176       O    0.5250669303    0.5250669303    0.5911596641
O177       O    0.5250669303    0.5911596641    0.5250669303
O178       O    0.4749330697    0.5911596641    0.4749330697
C179       C    0.3910075270    0.5000000000    0.5000000000
C180       C    0.5000000000    0.3910075270    0.5000000000
C181       C    0.5000000000    0.5000000000    0.3910075270
C182       C    0.6089924730    0.5000000000    0.5000000000
C183       C    0.5000000000    0.5000000000    0.6089924730
C184       C    0.5000000000    0.6089924730    0.5000000000
C898       C    0.5000000000    0.5000000000   -0.1558408621
C898       C    0.5281333225    0.5038060565   -0.1271427037
C899       C    0.5166977223    0.5078980062   -0.0877798056
C900       C    0.4773483001    0.5101774225   -0.0766504742
C901       C    0.4487852784    0.5098018979   -0.1080274502
C902       C    0.4603374280    0.5019764492   -0.1487301066
C903       C    0.4645754594    0.5152349996   -0.0318556443
H898       H    0.5411224263    0.5090807171   -0.0653246561
H899       H    0.5607906578    0.5039775345   -0.1334485615
C904       C    0.4283253921    0.5033526083   -0.1825943341
C905       C    0.4030265459    0.5119232047   -0.0960796656
C906       C    0.4816619608    0.5139587848    0.0059091617
C907       C    0.4587359266    0.5285957052    0.0457496778
H900       H    0.5141506339    0.5082144740    0.0089275998
H901       H    0.4330027547    0.5235170549   -0.0283447985
C908       C    0.4110089633    0.5221870128    0.0531561766
C909       C    0.5234503523    0.4769945910   -0.3369631809
N898       N    0.5648754489    0.4907034315   -0.3253732667
N899       N    0.5923878932    0.4685567598   -0.3526466647
H902       H    0.6217320610    0.4768975947   -0.3465731758
H903       H    0.5694536929    0.4850676286   -0.2948959366
H904       H    0.3924837026    0.5462085467    0.0384983891
C899       C    0.5000000000    0.5000000000   -0.3441591379
H905       H    0.4027033717    0.4938105572    0.0381668452
H906       H    0.4673597341    0.5610279446    0.0472042096
H907       H    0.4198168033    0.4840186474   -0.2092233749
H908       H    0.3990937565    0.5142910137   -0.1715399192
H909       H    0.4429508136    0.5265608173   -0.2005344096
H910       H    0.3987395545    0.5026043186   -0.0649178966
H911       H    0.3735279782    0.5275240282   -0.1023951833
H912       H    0.3938819085    0.4883516121   -0.1165022847
C867       C    0.5000000000    0.5000000000    0.3441591379
C867       C    0.4718666775    0.4961939435    0.3728572963
C868       C    0.4833022777    0.4921019938    0.4122201944
C869       C    0.5226516999    0.4898225775    0.4233495258
C870       C    0.5512147216    0.4901981021    0.3919725498
C871       C    0.5396625720    0.4980235508    0.3512698934
C872       C    0.5354245406    0.4847650004    0.4681443557
H867       H    0.4588775737    0.4909192829    0.4346753439
H868       H    0.4392093422    0.4960224655    0.3665514385
C873       C    0.5716746079    0.4966473917    0.3174056659
C874       C    0.5969734541    0.4880767953    0.4039203344
C875       C    0.5183380392    0.4860412152    0.5059091617
C876       C    0.5412640734    0.4714042948    0.5457496778
H869       H    0.4858493661    0.4917855260    0.5089275998
H870       H    0.5669972453    0.4764829451    0.4716552015
C877       C    0.5889910367    0.4778129872    0.5531561766
C878       C    0.4765496477    0.5230054090    0.1630368191
N867       N    0.4351245511    0.5092965685    0.1746267333
N868       N    0.4076121068    0.5314432402    0.1473533353
H871       H    0.3782679390    0.5231024053    0.1534268242
H872       H    0.4305463071    0.5149323714    0.2051040634
H873       H    0.6075162974    0.4537914533    0.5384983891
C868       C    0.5000000000    0.5000000000    0.1558408621
H874       H    0.5972966283    0.5061894428    0.5381668452
H875       H    0.5326402659    0.4389720554    0.5472042096
H876       H    0.5801831967    0.5159813526    0.2907766251
H877       H    0.6009062435    0.4857089863    0.3284600808
H878       H    0.5570491864    0.4734391827    0.2994655904
H879       H    0.6012604455    0.4973956814    0.4350821034
H880       H    0.6264720218    0.4724759718    0.3976048167
H881       H    0.6061180915    0.5116483879    0.3834977153
C836       C    0.5000000000    0.8441591379    0.5000000000
C836       C    0.4953727135    0.8728572963    0.4719900354
C837       C    0.4916169890    0.9122201944    0.4835404266
C838       C    0.4904894606    0.9233495258    0.5229396835
C839       C    0.4917002510    0.8919725498    0.5514795016
C840       C    0.4991844683    0.8512698934    0.5397034114
C841       C    0.4858076342    0.9681443557    0.5358549863
H836       H    0.4897203974    0.9346753439    0.4591607647
H837       H    0.4942461298    0.8665514385    0.4393516873
C842       C    0.4987452030    0.8174056659    0.5717420022
C843       C    0.4909182274    0.9039203344    0.5972807021
C844       C    0.4865835479    1.0059091617    0.5187384676
C845       C    0.4726234424    1.0457496778    0.5420828018
H838       H    0.4913751552    1.0089275998    0.4860956815
H839       H    0.4784525774    0.9716552015    0.5676564211
C846       C    0.4804253366    1.0531561766    0.5896019012
C847       C    0.5223096782    0.6630368191    0.4758868060
N836       N    0.5073950796    0.6746267333    0.4348803958
N837       N    0.5287275777    0.6473533353    0.4067319646
H840       H    0.5195320375    0.6534268242    0.3776443082
H841       H    0.5128945644    0.7051040634    0.4301392716
H842       H    0.4569559164    1.0384983891    0.6088218308
C837       C    0.5000000000    0.6558408621    0.5000000000
H843       H    0.5090325782    1.0381668452    0.5970739698
H844       H    0.4399528448    1.0472042096    0.5344112792
H845       H    0.5183197560    0.7907766251    0.5796814608
H846       H    0.4886664598    0.8284600808    0.6012810639
H847       H    0.4751191511    0.7994655904    0.5578016439
H848       H    0.5003585149    0.9350821034    0.6012932957
H849       H    0.4761868682    0.8976048167    0.6272229507
H850       H    0.5147472026    0.8834977153    0.6057319928
C805       C    0.5000000000    1.1558408621    0.5000000000
C805       C    0.5281333225    1.1271427037    0.5038060565
C806       C    0.5166977223    1.0877798056    0.5078980062
C807       C    0.4773483001    1.0766504742    0.5101774225
C808       C    0.4487852784    1.1080274502    0.5098018979
C809       C    0.4603374280    1.1487301066    0.5019764492
C810       C    0.4645754594    1.0318556443    0.5152349996
H805       H    0.5411224263    1.0653246561    0.5090807171
H806       H    0.5607906578    1.1334485615    0.5039775345
C811       C    0.4283253921    1.1825943341    0.5033526083
C812       C    0.4030265459    1.0960796656    0.5119232047
C813       C    0.4816619608    0.9940908383    0.5139587848
C814       C    0.4587359266    0.9542503222    0.5285957052
H807       H    0.5141506339    0.9910724002    0.5082144740
H808       H    0.4330027547    1.0283447985    0.5235170549
C815       C    0.4110089633    0.9468438234    0.5221870128
C816       C    0.5234503523    1.3369631809    0.4769945910
N805       N    0.5648754489    1.3253732667    0.4907034315
N806       N    0.5923878932    1.3526466647    0.4685567598
H809       H    0.6217320610    1.3465731758    0.4768975947
H810       H    0.5694536929    1.2948959366    0.4850676286
H811       H    0.3924837026    0.9615016109    0.5462085467
C806       C    0.5000000000    1.3441591379    0.5000000000
H812       H    0.4027033717    0.9618331548    0.4938105572
H813       H    0.4673597341    0.9527957904    0.5610279446
H814       H    0.4198168033    1.2092233749    0.4840186474
H815       H    0.3990937565    1.1715399192    0.5142910137
H816       H    0.4429508136    1.2005344096    0.5265608173
H817       H    0.3987395545    1.0649178966    0.5026043186
H818       H    0.3735279782    1.1023951833    0.5275240282
H819       H    0.3938819085    1.1165022847    0.4883516121
C774       C    0.5000000000    0.8441591379    0.0000000000
C774       C    0.5022382009    0.8728572963    0.0283012430
C775       C    0.5069587527    0.9122201944    0.0171104703
C776       C    0.5114193648    0.9233495258   -0.0220517017
C777       C    0.5126302615    0.8919725498   -0.0505915152
C778       C    0.5041754987    0.8512698934   -0.0394916596
C779       C    0.5171782992    0.9681443557   -0.0345240398
H774       H    0.5067835600    0.9346753439    0.0415631650
H775       H    0.5005962528    0.8665514385    0.0609177260
C780       C    0.5073268691    0.8174056659   -0.0713779125
C781       C    0.5172888581    0.9039203344   -0.0961618895
C782       C    0.5149553966    1.0059091617   -0.0175347503
C783       C    0.5308426119    1.0457496778   -0.0396127682
H776       H    0.5074161488    1.0089275998    0.0145848812
H777       H    0.5272005218    0.9716552015   -0.0655882182
C784       C    0.5270936443    1.0531561766   -0.0876219299
C785       C    0.4757280937    0.6630368191    0.0221369020
N774       N    0.4871158338    0.6746267333    0.0642592275
N775       N    0.4634758095    0.6473533353    0.0904996335
H778       H    0.4701745671    0.6534268242    0.1202616288
H779       H    0.4812345362    0.7051040634    0.0685175053
H780       H    0.5521066631    1.0384983891   -0.1047849209
C775       C    0.5000000000    0.6558408621    0.0000000000
H781       H    0.4992220917    1.0381668452   -0.0974901941
H782       H    0.5627460248    1.0472042096   -0.0292015985
H783       H    0.4884951340    0.7907766251   -0.0809468142
H784       H    0.5198713664    0.8284600808   -0.0999571500
H785       H    0.5296872650    0.7994655904   -0.0554865117
H786       H    0.5082223632    0.9350821034   -0.1009596604
H787       H    0.5345034021    0.8976048167   -0.1247487862
H788       H    0.4942613416    0.8834977153   -0.1066011355
C743       C    0.5000000000    1.1558408621    0.0000000000
C743       C    0.5131486465    1.1271427037   -0.0251611406
C744       C    0.5131067830    1.0877798056   -0.0130155549
C745       C    0.5018655881    1.0766504742    0.0247628557
C746       C    0.4917967533    1.1080274502    0.0514949673
C747       C    0.4883673857    1.1487301066    0.0379698334
C748       C    0.5022769110    1.0318556443    0.0384944017
H743       H    0.5225270253    1.0653246561   -0.0355815472
H744       H    0.5244182811    1.1334485615   -0.0558128337
C749       C    0.4787726029    1.1825943341    0.0685411337
C750       C    0.4782267520    1.0960796656    0.0952467284
C751       C    0.5068887630    0.9940908383    0.0219926419
C752       C    0.5128546202    0.9542503222    0.0485303704
H745       H    0.5125379890    0.9910724002   -0.0105126996
H746       H    0.4993256734    1.0283447985    0.0710016058
C753       C    0.4905937592    0.9468438234    0.0912315230
C754       C    0.4863430028    1.3369631809   -0.0298773207
N743       N    0.5133251357    1.3253732667   -0.0641692357
N744       N    0.5018573896    1.3526466647   -0.0975743320
H747       H    0.5196822804    1.3465731758   -0.1223316134
H748       H    0.5095826766    1.2948959366   -0.0703915015
H749       H    0.5068815594    0.9615016109    0.1168230633
C744       C    0.5000000000    1.3441591379    0.0000000000
H750       H    0.4610842102    0.9618331548    0.0893896213
H751       H    0.5462863529    0.9527957904    0.0514526045
H752       H    0.4576973071    1.2092233749    0.0699659263
H753       H    0.4791156346    1.1715399192    0.0997504202
H754       H    0.5055717691    1.2005344096    0.0626820714
H755       H    0.4680053201    1.0649178966    0.0961082762
H756       H    0.4828633910    1.1023951833    0.1282929501
H757       H    0.4529501571    1.1165022847    0.0958282138
C712       C    0.5000000000    1.0000000000   -0.1558408621
C712       C    0.5038060565    0.9718666775   -0.1271427037
C713       C    0.5078980062    0.9833022777   -0.0877798056
C714       C    0.5101774225    1.0226516999   -0.0766504742
C715       C    0.5098018979    1.0512147216   -0.1080274502
C716       C    0.5019764492    1.0396625720   -0.1487301066
C717       C    0.5152349996    1.0354245406   -0.0318556443
H712       H    0.5090807171    0.9588775737   -0.0653246561
H713       H    0.5039775345    0.9392093422   -0.1334485615
C718       C    0.5033526083    1.0716746079   -0.1825943341
C719       C    0.5119232047    1.0969734541   -0.0960796656
C720       C    0.5139587848    1.0183380392    0.0059091617
C721       C    0.5285957052    1.0412640734    0.0457496778
H714       H    0.5082144740    0.9858493661    0.0089275998
H715       H    0.5235170549    1.0669972453   -0.0283447985
C722       C    0.5221870128    1.0889910367    0.0531561766
C723       C    0.4769945910    0.9765496477   -0.3369631809
N712       N    0.4907034315    0.9351245511   -0.3253732667
N713       N    0.4685567598    0.9076121068   -0.3526466647
H716       H    0.4768975947    0.8782679390   -0.3465731758
H717       H    0.4850676286    0.9305463071   -0.2948959366
H718       H    0.5462085467    1.1075162974    0.0384983891
C713       C    0.5000000000    1.0000000000   -0.3441591379
H719       H    0.4938105572    1.0972966283    0.0381668452
H720       H    0.5610279446    1.0326402659    0.0472042096
H721       H    0.4840186474    1.0801831967   -0.2092233749
H722       H    0.5142910137    1.1009062435   -0.1715399192
H723       H    0.5265608173    1.0570491864   -0.2005344096
H724       H    0.5026043186    1.1012604455   -0.0649178966
H725       H    0.5275240282    1.1264720218   -0.1023951833
H726       H    0.4883516121    1.1061180915   -0.1165022847
C681       C    0.5000000000    1.0000000000    0.1558408621
C681       C    0.5281333225    0.9961939435    0.1271427037
C682       C    0.5166977223    0.9921019938    0.0877798056
C683       C    0.4773483001    0.9898225775    0.0766504742
C684       C    0.4487852784    0.9901981021    0.1080274502
C685       C    0.4603374280    0.9980235508    0.1487301066
C686       C    0.4645754594    0.9847650004    0.0318556443
H681       H    0.5411224263    0.9909192829    0.0653246561
H682       H    0.5607906578    0.9960224655    0.1334485615
C687       C    0.4283253921    0.9966473917    0.1825943341
C688       C    0.4030265459    0.9880767953    0.0960796656
C689       C    0.4816619608    0.9860412152   -0.0059091617
C690       C    0.4587359266    0.9714042948   -0.0457496778
H683       H    0.5141506339    0.9917855260   -0.0089275998
H684       H    0.4330027547    0.9764829451    0.0283447985
C691       C    0.4110089633    0.9778129872   -0.0531561766
C692       C    0.5234503523    1.0230054090    0.3369631809
N681       N    0.5648754489    1.0092965685    0.3253732667
N682       N    0.5923878932    1.0314432402    0.3526466647
H685       H    0.6217320610    1.0231024053    0.3465731758
H686       H    0.5694536929    1.0149323714    0.2948959366
H687       H    0.3924837026    0.9537914533   -0.0384983891
C682       C    0.5000000000    1.0000000000    0.3441591379
H688       H    0.4027033717    1.0061894428   -0.0381668452
H689       H    0.4673597341    0.9389720554   -0.0472042096
H690       H    0.4198168033    1.0159813526    0.2092233749
H691       H    0.3990937565    0.9857089863    0.1715399192
H692       H    0.4429508136    0.9734391827    0.2005344096
H693       H    0.3987395545    0.9973956814    0.0649178966
H694       H    0.3735279782    0.9724759718    0.1023951833
H695       H    0.3938819085    1.0116483879    0.1165022847
C650       C    0.8441591379    0.5000000000    0.5000000000
C650       C    0.8728572963    0.5276201097    0.4934349836
C651       C    0.9122201944    0.5184208638    0.5013653605
C652       C    0.9233495258    0.4825231789    0.5176420000
C653       C    0.8919725498    0.4557357006    0.5275625962
C654       C    0.8512698934    0.4637011678    0.5161065436
C655       C    0.9681443557    0.4724233713    0.5269542731
H650       H    0.9346753439    0.5416370931    0.4936860593
H651       H    0.8665514385    0.5581546601    0.4818517117
C656       C    0.8174056659    0.4343252689    0.5289018875
C657       C    0.9039203344    0.4138005691    0.5459964316
C658       C    1.0059091617    0.4879080426    0.5196192742
C659       C    1.0457496778    0.4717788322    0.5415211247
H652       H    1.0089275998    0.5161579489    0.5025765696
H653       H    0.9716552015    0.4459407141    0.5460355988
C660       C    1.0531561766    0.4249398148    0.5527032898
C661       C    0.6630368191    0.5136092247    0.4701008885
N650       N    0.6746267333    0.5571929734    0.4679966589
N651       N    0.6473533353    0.5749013712    0.4374381526
H654       H    0.6534268242    0.6052819978    0.4346691747
H655       H    0.7051040634    0.5594383957    0.4610915397
H656       H    1.0384983891    0.4162916320    0.5817795397
C651       C    0.6558408621    0.5000000000    0.5000000000
H657       H    1.0381668452    0.4069858692    0.5292115483
H658       H    1.0472042096    0.4914881312    0.5686829314
H659       H    0.7907766251    0.4194335032    0.5139207848
H660       H    0.8284600808    0.4109822862    0.5496200532
H661       H    0.7994655904    0.4563178572    0.5452985329
H662       H    0.9350821034    0.4064493478    0.5388424481
H663       H    0.8976048167    0.3918850723    0.5711611329
H664       H    0.8834977153    0.3967914862    0.5272898693
C619       C    1.1558408621    0.5000000000    0.5000000000
C619       C    1.1271427037    0.4781759210    0.5181570779
C620       C    1.0877798056    0.4900397701    0.5155559073
C621       C    1.0766504742    0.5245996927    0.4966037432
C622       C    1.1080274502    0.5486086566    0.4811261182
C623       C    1.1487301066    0.5346645342    0.4806248604
C624       C    1.0318556443    0.5381093957    0.4941112609
H619       H    1.0653246561    0.4699665916    0.5295213100
H620       H    1.1334485615    0.4505885733    0.5356347550
C625       C    1.1825943341    0.5625263486    0.4648013477
C626       C    1.0960796656    0.5885168038    0.4586383142
C627       C    0.9940908383    0.5229505938    0.5020979987
C628       C    0.9542503222    0.5501496005    0.5023357406
H621       H    0.9910724002    0.4923664864    0.5144723008
H622       H    1.0283447985    0.5692640506    0.4843739306
C629       C    0.9468438234    0.5871987430    0.4715738257
C630       C    1.3369631809    0.4679151760    0.4929479129
N619       N    1.3253732667    0.4400815430    0.5265523741
N620       N    1.3526466647    0.4050096994    0.5223839885
H623       H    1.3465731758    0.3845661410    0.5450271031
H624       H    1.2948959366    0.4332101943    0.5242056404
H625       H    0.9615016109    0.6156486526    0.4821010294
C620       C    1.3441591379    0.5000000000    0.5000000000
H626       H    0.9618331548    0.5791777171    0.4431156243
H627       H    0.9527957904    0.5600534664    0.5344002638
H628       H    1.2092233749    0.5594765259    0.4438992734
H629       H    1.1715399192    0.5931066708    0.4585578609
H630       H    1.2005344096    0.5624481120    0.4922334055
H631       H    1.0649178966    0.5872043497    0.4484649471
H632       H    1.1023951833    0.6217978629    0.4562047376
H633       H    1.1165022847    0.5837570037    0.4338071106
C588       C    0.8441591379    0.5000000000    0.0000000000
C588       C    0.8728572963    0.5119087493    0.0257711387
C589       C    0.9122201944    0.5023125041    0.0183260677
C590       C    0.9233495258    0.4792442595   -0.0136337330
C591       C    0.8919725498    0.4642115082   -0.0379237230
C592       C    0.8512698934    0.4770189750   -0.0323867018
C593       C    0.9681443557    0.4681150494   -0.0216876281
H588       H    0.9346753439    0.5144406422    0.0395598436
H589       H    0.8665514385    0.5293138179    0.0534043532
C594       C    0.8174056659    0.4586555069   -0.0586440303
C595       C    0.9039203344    0.4378323122   -0.0753736837
C596       C    1.0059091617    0.4783734179   -0.0079638120
C597       C    1.0457496778    0.4537094040   -0.0194324170
H590       H    1.0089275998    0.5006768394    0.0163480858
H591       H    0.9716552015    0.4441636910   -0.0438633029
C598       C    1.0531561766    0.4334661473   -0.0631261800
C599       C    0.6630368191    0.5320032133    0.0074136497
N588       N    0.6746267333    0.5427034500    0.0497158466
N589       N    0.6473533353    0.5761653826    0.0610166752
H592       H    0.6534268242    0.5849004904    0.0902459004
H593       H    0.7051040634    0.5499166146    0.0505482221
H594       H    1.0384983891    0.4032526890   -0.0658402749
C589       C    0.6558408621    0.5000000000    0.0000000000
H595       H    1.0381668452    0.4529336662   -0.0853797593
H596       H    1.0472042096    0.4309925075    0.0052690571
H597       H    0.7907766251    0.4703880878   -0.0762094700
H598       H    0.8284600808    0.4337220202   -0.0774179078
H599       H    0.7994655904    0.4469427547   -0.0338380762
H600       H    0.9350821034    0.4433874716   -0.0839969161
H601       H    0.8976048167    0.4088234003   -0.0918671437
H602       H    0.8834977153    0.4527968296   -0.0957527806
C557       C    1.1558408621    0.5000000000    0.0000000000
C557       C    1.1271427037    0.5282892435   -0.0023850785
C558       C    1.0877798056    0.5170741179   -0.0070474769
C559       C    1.0766504742    0.4778893192   -0.0113047438
C560       C    1.1080274502    0.4493436046   -0.0123674781
C561       C    1.1487301066    0.4604871980   -0.0039704469
C562       C    1.0318556443    0.4653872552   -0.0169988584
H557       H    1.0653246561    0.5415273925   -0.0069992170
H558       H    1.1334485615    0.5609138102   -0.0009124599
C563       C    1.1825943341    0.4285850164   -0.0069562580
C564       C    1.0960796656    0.4037496621   -0.0167894626
C565       C    0.9940908383    0.4823878546   -0.0148641747
C566       C    0.9542503222    0.4602276659   -0.0306365722
H559       H    0.9910724002    0.5145461885   -0.0074917569
H560       H    1.0283447985    0.4342714715   -0.0268596963
C567       C    0.9468438234    0.4122386114   -0.0266384464
C568       C    1.3369631809    0.5222625957    0.0241566699
N557       N    1.3253732667    0.5643252416    0.0125504322
N558       N    1.3526466647    0.5906880061    0.0360539278
H561       H    1.3465731758    0.6204148281    0.0292007703
H562       H    1.2948959366    0.5686139911    0.0184095465
H563       H    0.9615016109    0.3949460127   -0.0515620377
C558       C    1.3441591379    0.5000000000    0.0000000000
H564       H    0.9618331548    0.4025151574    0.0012839554
H565       H    0.9527957904    0.4704730893   -0.0625935981
H566       H    1.2092233749    0.4191139965    0.0119248943
H567       H    1.1715399192    0.3999410473   -0.0193522355
H568       H    1.2005344096    0.4443601335   -0.0293988425
H569       H    1.0649178966    0.3989990187   -0.0076981854
H570       H    1.1023951833    0.3750737923   -0.0338553843
H571       H    1.1165022847    0.3934300893    0.0062919323
C526       C    1.0000000000    0.5000000000   -0.1558408621
C526       C    1.0281333225    0.5038060565   -0.1271427037
C527       C    1.0166977223    0.5078980062   -0.0877798056
C528       C    0.9773483001    0.5101774225   -0.0766504742
C529       C    0.9487852784    0.5098018979   -0.1080274502
C530       C    0.9603374280    0.5019764492   -0.1487301066
C531       C    0.9645754594    0.5152349996   -0.0318556443
H526       H    1.0411224263    0.5090807171   -0.0653246561
H527       H    1.0607906578    0.5039775345   -0.1334485615
C532       C    0.9283253921    0.5033526083   -0.1825943341
C533       C    0.9030265459    0.5119232047   -0.0960796656
C534       C    0.9816619608    0.5139587848    0.0059091617
C535       C    0.9587359266    0.5285957052    0.0457496778
H528       H    1.0141506339    0.5082144740    0.0089275998
H529       H    0.9330027547    0.5235170549   -0.0283447985
C536       C    0.9110089633    0.5221870128    0.0531561766
C537       C    1.0234503523    0.4769945910   -0.3369631809
N526       N    1.0648754489    0.4907034315   -0.3253732667
N527       N    1.0923878932    0.4685567598   -0.3526466647
H530       H    1.1217320610    0.4768975947   -0.3465731758
H531       H    1.0694536929    0.4850676286   -0.2948959366
H532       H    0.8924837026    0.5462085467    0.0384983891
C527       C    1.0000000000    0.5000000000   -0.3441591379
H533       H    0.9027033717    0.4938105572    0.0381668452
H534       H    0.9673597341    0.5610279446    0.0472042096
H535       H    0.9198168033    0.4840186474   -0.2092233749
H536       H    0.8990937565    0.5142910137   -0.1715399192
H537       H    0.9429508136    0.5265608173   -0.2005344096
H538       H    0.8987395545    0.5026043186   -0.0649178966
H539       H    0.8735279782    0.5275240282   -0.1023951833
H540       H    0.8938819085    0.4883516121   -0.1165022847
C495       C    1.0000000000    0.5000000000    0.1558408621
C495       C    1.0281333225    0.4961939435    0.1271427037
C496       C    1.0166977223    0.4921019938    0.0877798056
C497       C    0.9773483001    0.4898225775    0.0766504742
C498       C    0.9487852784    0.4901981021    0.1080274502
C499       C    0.9603374280    0.4980235508    0.1487301066
C500       C    0.9645754594    0.4847650004    0.0318556443
H495       H    1.0411224263    0.4909192829    0.0653246561
H496       H    1.0607906578    0.4960224655    0.1334485615
C501       C    0.9283253921    0.4966473917    0.1825943341
C502       C    0.9030265459    0.4880767953    0.0960796656
C503       C    0.9816619608    0.4860412152   -0.0059091617
C504       C    0.9587359266    0.4714042948   -0.0457496778
H497       H    1.0141506339    0.4917855260   -0.0089275998
H498       H    0.9330027547    0.4764829451    0.0283447985
C505       C    0.9110089633    0.4778129872   -0.0531561766
C506       C    1.0234503523    0.5230054090    0.3369631809
N495       N    1.0648754489    0.5092965685    0.3253732667
N496       N    1.0923878932    0.5314432402    0.3526466647
H499       H    1.1217320610    0.5231024053    0.3465731758
H500       H    1.0694536929    0.5149323714    0.2948959366
H501       H    0.8924837026    0.4537914533   -0.0384983891
C496       C    1.0000000000    0.5000000000    0.3441591379
H502       H    0.9027033717    0.5061894428   -0.0381668452
H503       H    0.9673597341    0.4389720554   -0.0472042096
H504       H    0.9198168033    0.5159813526    0.2092233749
H505       H    0.8990937565    0.4857089863    0.1715399192
H506       H    0.9429508136    0.4734391827    0.2005344096
H507       H    0.8987395545    0.4973956814    0.0649178966
H508       H    0.8735279782    0.4724759718    0.1023951833
H509       H    0.8938819085    0.5116483879    0.1165022847
C464       C    1.0000000000   -0.1558408621    0.5000000000
C464       C    0.9718666775   -0.1271427037    0.5038060565
C465       C    0.9833022777   -0.0877798056    0.5078980062
C466       C    1.0226516999   -0.0766504742    0.5101774225
C467       C    1.0512147216   -0.1080274502    0.5098018979
C468       C    1.0396625720   -0.1487301066    0.5019764492
C469       C    1.0354245406   -0.0318556443    0.5152349996
H464       H    0.9588775737   -0.0653246561    0.5090807171
H465       H    0.9392093422   -0.1334485615    0.5039775345
C470       C    1.0716746079   -0.1825943341    0.5033526083
C471       C    1.0969734541   -0.0960796656    0.5119232047
C472       C    1.0183380392    0.0059091617    0.5139587848
C473       C    1.0412640734    0.0457496778    0.5285957052
H466       H    0.9858493661    0.0089275998    0.5082144740
H467       H    1.0669972453   -0.0283447985    0.5235170549
C474       C    1.0889910367    0.0531561766    0.5221870128
C475       C    0.9765496477   -0.3369631809    0.4769945910
N464       N    0.9351245511   -0.3253732667    0.4907034315
N465       N    0.9076121068   -0.3526466647    0.4685567598
H468       H    0.8782679390   -0.3465731758    0.4768975947
H469       H    0.9305463071   -0.2948959366    0.4850676286
H470       H    1.1075162974    0.0384983891    0.5462085467
C465       C    1.0000000000   -0.3441591379    0.5000000000
H471       H    1.0972966283    0.0381668452    0.4938105572
H472       H    1.0326402659    0.0472042096    0.5610279446
H473       H    1.0801831967   -0.2092233749    0.4840186474
H474       H    1.1009062435   -0.1715399192    0.5142910137
H475       H    1.0570491864   -0.2005344096    0.5265608173
H476       H    1.1012604455   -0.0649178966    0.5026043186
H477       H    1.1264720218   -0.1023951833    0.5275240282
H478       H    1.1061180915   -0.1165022847    0.4883516121
C433       C    1.0000000000    0.3441591379    0.5000000000
C433       C    0.9718666775    0.3728572963    0.5038060565
C434       C    0.9833022777    0.4122201944    0.5078980062
C435       C    1.0226516999    0.4233495258    0.5101774225
C436       C    1.0512147216    0.3919725498    0.5098018979
C437       C    1.0396625720    0.3512698934    0.5019764492
C438       C    1.0354245406    0.4681443557    0.5152349996
H433       H    0.9588775737    0.4346753439    0.5090807171
H434       H    0.9392093422    0.3665514385    0.5039775345
C439       C    1.0716746079    0.3174056659    0.5033526083
C440       C    1.0969734541    0.4039203344    0.5119232047
C441       C    1.0183380392    0.5059091617    0.5139587848
C442       C    1.0412640734    0.5457496778    0.5285957052
H435       H    0.9858493661    0.5089275998    0.5082144740
H436       H    1.0669972453    0.4716552015    0.5235170549
C443       C    1.0889910367    0.5531561766    0.5221870128
C444       C    0.9765496477    0.1630368191    0.4769945910
N433       N    0.9351245511    0.1746267333    0.4907034315
N434       N    0.9076121068    0.1473533353    0.4685567598
H437       H    0.8782679390    0.1534268242    0.4768975947
H438       H    0.9305463071    0.2051040634    0.4850676286
H439       H    1.1075162974    0.5384983891    0.5462085467
C434       C    1.0000000000    0.1558408621    0.5000000000
H440       H    1.0972966283    0.5381668452    0.4938105572
H441       H    1.0326402659    0.5472042096    0.5610279446
H442       H    1.0801831967    0.2907766251    0.4840186474
H443       H    1.1009062435    0.3284600808    0.5142910137
H444       H    1.0570491864    0.2994655904    0.5265608173
H445       H    1.1012604455    0.4350821034    0.5026043186
H446       H    1.1264720218    0.3976048167    0.5275240282
H447       H    1.1061180915    0.3834977153    0.4883516121
C402       C    0.6558408621   -0.0000000000    0.5000000000
C402       C    0.6271427037    0.0265361353    0.4899102319
C403       C    0.5877798056    0.0144703590    0.4885195322
C404       C    0.5766504742   -0.0243700724    0.4952272636
C405       C    0.6080274502   -0.0521030298    0.5020734524
C406       C    0.6487301066   -0.0390766768    0.5070738461
C407       C    0.5318556443   -0.0379573009    0.4931995149
H402       H    0.5653246561    0.0379897808    0.4818261198
H403       H    0.6334485615    0.0583029298    0.4823338394
C408       C    0.6825943341   -0.0705661321    0.5129965533
C409       C    0.5960796656   -0.0971497575    0.5103893321
C410       C    0.4940908383   -0.0210268288    0.4905658161
C411       C    0.4542503222   -0.0466758646    0.4815121181
H404       H    0.4910724002    0.0119178923    0.4887892076
H405       H    0.5283447985   -0.0705857106    0.4922967406
C412       C    0.4468438234   -0.0917041861    0.4985821100
C413       C    0.8369631809    0.0280583464    0.5170849952
N402       N    0.8253732667    0.0652928631    0.4943350127
N403       N    0.8526466647    0.0971125379    0.5096620461
H406       H    0.8465731758    0.1237990793    0.4948810371
H407       H    0.7948959366    0.0710303825    0.4987851209
H408       H    0.4615016109   -0.1151964182    0.4793900699
C403       C    0.8441591379   -0.0000000000    0.5000000000
H409       H    0.4618331548   -0.0933550567    0.5281029621
H410       H    0.4527957904   -0.0456352639    0.4479690508
H411       H    0.7092233749   -0.0744662923    0.5337567768
H412       H    0.6715399192   -0.1015172030    0.5089755528
H413       H    0.7005344096   -0.0615876536    0.4870753102
H414       H    0.5649178966   -0.0992106585    0.5204378455
H415       H    0.6023951833   -0.1294186217    0.5018880620
H416       H    0.6165022847   -0.1007079339    0.5354209872
C371       C    1.1558408621   -0.0000000000    0.5000000000
C371       C    1.1271427037   -0.0156239628    0.4762963782
C372       C    1.0877798056   -0.0143549582    0.4883755599
C373       C    1.0766504742    0.0006463383    0.5248246185
C374       C    1.1080274502    0.0133650073    0.5504023957
C375       C    1.1487301066    0.0154100561    0.5365999473
C376       C    1.0318556443    0.0016247434    0.5385274382
H371       H    1.0653246561   -0.0260073534    0.4668770330
H372       H    1.1334485615   -0.0299333727    0.4469404292
C377       C    1.1825943341    0.0280450637    0.5660451649
C378       C    1.0960796656    0.0312868176    0.5925588929
C379       C    0.9940908383   -0.0046310631    0.5225761956
C380       C    0.9542503222   -0.0078846472    0.5495809485
H373       H    0.9910724002   -0.0135361532    0.4908081244
H374       H    1.0283447985    0.0078458444    0.5705700040
C381       C    0.9468438234    0.0185773663    0.5898139723
C382       C    1.3369631809    0.0105678752    0.4688955328
N371       N    1.3253732667   -0.0197414580    0.4375058012
N372       N    1.3526466647   -0.0117081217    0.4031128489
H375       H    1.3465731758   -0.0319435795    0.3802835703
H376       H    1.2948959366   -0.0166469391    0.4309371982
H377       H    0.9615016109    0.0049590615    0.6169204503
C372       C    1.3441591379   -0.0000000000    0.5000000000
H378       H    0.9618331548    0.0477497245    0.5849994524
H379       H    0.9527957904   -0.0408499399    0.5558666214
H380       H    1.2092233749    0.0491564551    0.5653329288
H381       H    1.1715399192    0.0308575996    0.5971293550
H382       H    1.2005344096    0.0007910035    0.5629242481
H383       H    1.0649178966    0.0415429883    0.5923831176
H384       H    1.1023951833    0.0300133542    0.6259044995
H385       H    1.1165022847    0.0564927823    0.5905831101
C340       C   -0.0000000000   -0.3441591379    0.0000000000
C340       C   -0.0015451067   -0.3728572963    0.0283475315
C341       C   -0.0065380412   -0.4122201944    0.0172756027
C342       C   -0.0119554682   -0.4233495258   -0.0217657120
C343       C   -0.0138642636   -0.3919725498   -0.0502673563
C344       C   -0.0051404602   -0.3512698934   -0.0393776794
C345       C   -0.0180178296   -0.4681443557   -0.0340934173
H340       H   -0.0057646361   -0.4346753439    0.0417166914
H341       H    0.0008943518   -0.3665514385    0.0609140788
C346       C   -0.0090710232   -0.3174056659   -0.0711772853
C347       C   -0.0196364002   -0.4039203344   -0.0957101112
C348       C   -0.0153799288   -0.5059091617   -0.0171635994
C349       C   -0.0318025539   -0.5457496778   -0.0388463084
H342       H   -0.0070570920   -0.5089275998    0.0147619604
H343       H   -0.0287970749   -0.4716552015   -0.0649030910
C350       C   -0.0292293109   -0.5531561766   -0.0869328220
C351       C    0.0248062469   -0.1630368191    0.0215364338
N340       N    0.0144524895   -0.1746267333    0.0639247652
N341       N    0.0387274407   -0.1473533353    0.0895789345
H344       H    0.0327588517   -0.1534268242    0.1194959139
H345       H    0.0204362105   -0.2051040634    0.0680378753
H346       H   -0.0546547558   -0.5384983891   -0.1034787015
C341       C   -0.0000000000   -0.1558408621   -0.0000000000
H347       H   -0.0016075405   -0.5381668452   -0.0974800436
H348       H   -0.0634416948   -0.5472042096   -0.0276576995
H349       H    0.0095209600   -0.2907766251   -0.0812040638
H350       H   -0.0223109912   -0.3284600808   -0.0994410515
H351       H   -0.0310359232   -0.2994655904   -0.0547435672
H352       H   -0.0106900027   -0.4350821034   -0.1007282688
H353       H   -0.0375452044   -0.3976048167   -0.1238672760
H354       H    0.0031288143   -0.3834977153   -0.1067096284
C309       C    0.0000000000    0.1558408621    0.0000000000
C309       C   -0.0062547906    0.1271427037    0.0276920114
C310       C   -0.0093297236    0.0877798056    0.0159420416
C311       C   -0.0081549519    0.0766504742   -0.0234558351
C312       C   -0.0052798929    0.1080274502   -0.0518762725
C313       C    0.0015039946    0.1487301066   -0.0396832958
C314       C   -0.0120747148    0.0318556443   -0.0366224596
H309       H   -0.0126465179    0.0653246561    0.0401693783
H310       H   -0.0092850847    0.1334485615    0.0602089035
C315       C    0.0029360932    0.1825943341   -0.0716928780
C316       C   -0.0033864200    0.0960796656   -0.0976449987
C317       C   -0.0122994949   -0.0059091617   -0.0194898379
C318       C   -0.0248727961   -0.0457496778   -0.0436094270
H311       H   -0.0094219530   -0.0089275998    0.0133770259
H312       H   -0.0175604565    0.0283447985   -0.0687990779
C319       C   -0.0143097474   -0.0531561766   -0.0905919383
C320       C    0.0208637394    0.3369631809    0.0253746378
N309       N    0.0035803718    0.3253732667    0.0654402857
N310       N    0.0232329955    0.3526466647    0.0947862230
H313       H    0.0123548217    0.3465731758    0.1232873643
H314       H    0.0087936581    0.2948959366    0.0704944164
H315       H   -0.0366169499   -0.0384983891   -0.1111493723
C310       C    0.0000000000    0.3441591379    0.0000000000
H316       H    0.0146849585   -0.0381668452   -0.0963809892
H317       H   -0.0579355716   -0.0472042096   -0.0378585066
H318       H    0.0229408089    0.2092233749   -0.0784759068
H319       H   -0.0054007800    0.1715399192   -0.1017700084
H320       H   -0.0214635800    0.2005344096   -0.0591557387
H321       H    0.0062720434    0.0649178966   -0.1010995636
H322       H   -0.0163444316    0.1023951833   -0.1283962771
H323       H    0.0208953440    0.1165022847   -0.1046905864
C278       C   -0.1558408621   -0.0000000000    0.0000000000
C278       C   -0.1271427037   -0.0268094106   -0.0093394541
C279       C   -0.0877798056   -0.0147875204   -0.0110689509
C280       C   -0.0766504742    0.0242261999   -0.0054562511
C281       C   -0.1080274502    0.0521407342    0.0006072464
C282       C   -0.1487301066    0.0392601692    0.0059720252
C283       C   -0.0318556443    0.0377510237   -0.0078653353
H278       H   -0.0653246561   -0.0384858891   -0.0170982371
H279       H   -0.1334485615   -0.0587767231   -0.0160194157
C284       C   -0.1825943341    0.0709037427    0.0110067558
C285       C   -0.0960796656    0.0974035246    0.0076529077
C286       C    0.0059091617    0.0207531768   -0.0100218267
C287       C    0.0457496778    0.0461374331   -0.0197933165
H280       H    0.0089275998   -0.0122284788   -0.0108711696
H281       H   -0.0283447985    0.0703411359   -0.0096854191
C288       C    0.0531561766    0.0916280319   -0.0039964883
C289       C   -0.3369631809   -0.0275667356    0.0178673713
N278       N   -0.3253732667   -0.0654263610   -0.0038263995
N279       N   -0.3526466647   -0.0968023794    0.0123894919
H282       H   -0.3465731758   -0.1238940765   -0.0016351172
H283       H   -0.2948959366   -0.0710364525    0.0007833148
H284       H    0.0384983891    0.1145711993   -0.0238416501
C279       C   -0.3441591379   -0.0000000000    0.0000000000
H285       H    0.0381668452    0.0941085167    0.0254662556
H286       H    0.0472042096    0.0441538530   -0.0532938481
H287       H   -0.2092233749    0.0753862365    0.0316490759
H288       H   -0.1715399192    0.1017294802    0.0061168542
H289       H   -0.2005344096    0.0611997869   -0.0146517157
H290       H   -0.0649178966    0.0997462225    0.0176394837
H291       H   -0.1023951833    0.1294205276   -0.0017525540
H292       H   -0.1165022847    0.1016643030    0.0325745878
C247       C    0.3441591379   -0.0000000000    0.0000000000
C247       C    0.3728572963   -0.0269235299    0.0090051894
C248       C    0.4122201944   -0.0184691957    0.0002850267
C249       C    0.4233495258    0.0158316193   -0.0191321528
C250       C    0.3919725498    0.0416262001   -0.0314051648
C251       C    0.3512698934    0.0347155489   -0.0192835846
C252       C    0.4681443557    0.0250595179   -0.0293091086
H247       H    0.4346753439   -0.0409069361    0.0100067950
H248       H    0.3665514385   -0.0563017409    0.0232688380
C253       C    0.3174056659    0.0628315025   -0.0346509985
C254       C    0.4039203344    0.0817477106   -0.0535100497
C255       C    0.5059091617    0.0102917028   -0.0206206743
C256       C    0.5457496778    0.0244007022   -0.0438753216
H249       H    0.5089275998   -0.0163234788   -0.0011234157
H250       H    0.4716552015    0.0497324673   -0.0506790336
C257       C    0.5531561766    0.0700540619   -0.0591954100
C258       C    0.1630368191   -0.0108849474    0.0309949316
N247       N    0.1746267333   -0.0541066780    0.0369826642
N248       N    0.1473533353   -0.0690155402    0.0690004012
H251       H    0.1534268242   -0.0990275347    0.0744712238
H252       H    0.2051040634   -0.0557265217    0.0440607076
H253       H    0.5384983891    0.0760712660   -0.0889277599
C248       C    0.1558408621   -0.0000000000    0.0000000000
H254       H    0.5381668452    0.0900340300   -0.0374007557
H255       H    0.5472042096    0.0023446665   -0.0691686310
H256       H    0.2907766251    0.0790015474   -0.0210595389
H257       H    0.3284600808    0.0842311550   -0.0573708599
H258       H    0.2994655904    0.0394625987   -0.0490182618
H259       H    0.4350821034    0.0897083950   -0.0470410901
H260       H    0.3976048167    0.1013285166   -0.0805312123
H261       H    0.3834977153    0.1003592873   -0.0363970842
C216       C    0.0000000000   -0.0000000000   -0.1558408621
C216       C    0.0162180619   -0.0233011667   -0.1271427037
C217       C    0.0146441710   -0.0112579166   -0.0877798056
C218       C   -0.0012735542    0.0248003528   -0.0766504742
C219       C   -0.0146346182    0.0500485051   -0.1080274502
C220       C   -0.0163301679    0.0361987788   -0.1487301066
C221       C   -0.0025979746    0.0384740668   -0.0318556443
H216       H    0.0268362020   -0.0324550710   -0.0653246561
H217       H    0.0312648489   -0.0522860792   -0.1334485615
C222       C   -0.0297053437    0.0653152506   -0.1825943341
C223       C   -0.0336161753    0.0917385762   -0.0960796656
C224       C    0.0040589884    0.0226860302    0.0059091617
C225       C    0.0066290096    0.0497643883    0.0457496778
H218       H    0.0137641465   -0.0088468239    0.0089275998
H219       H   -0.0096269386    0.0703491635   -0.0283447985
C226       C   -0.0208414082    0.0893157537    0.0531561766
C227       C   -0.0097783588   -0.0313616257   -0.3369631809
N216       N    0.0213146427   -0.0619752859   -0.3253732667
N217       N    0.0141531269   -0.0965602877   -0.3526466647
H220       H    0.0349591124   -0.1188708386   -0.3465731758
H221       H    0.0183871285   -0.0686200020   -0.2948959366
H222       H   -0.0079125484    0.1167577645    0.0384983891
C217       C   -0.0000000000    0.0000000000   -0.3441591379
H223       H   -0.0498827643    0.0837654637    0.0381668452
H224       H    0.0394249065    0.0568812248    0.0472042096
H225       H   -0.0507919900    0.0640696685   -0.2092233749
H226       H   -0.0333026091    0.0963184264   -0.1715399192
H227       H   -0.0023811109    0.0628841554   -0.2005344096
H228       H   -0.0438646272    0.0913036405   -0.0649178966
H229       H   -0.0331859022    0.1251057166   -0.1023951833
H230       H   -0.0587641518    0.0891263639   -0.1165022847
C185       C   -0.0000000000    0.0000000000    0.3441591379
C185       C    0.0192482452    0.0208680367    0.3728572963
C186       C    0.0078292083    0.0167300905    0.4122201944
C187       C   -0.0239398888   -0.0066000883    0.4233495258
C188       C   -0.0457062419   -0.0250990909    0.3919725498
C189       C   -0.0318172068   -0.0237632346    0.3512698934
C190       C   -0.0370047868   -0.0108466142    0.4681443557
H185       H    0.0258926816    0.0332126845    0.4346753439
H186       H    0.0442990586    0.0418200701    0.3665514385
C191       C   -0.0573575232   -0.0431115290    0.3174056659
C192       C   -0.0823124538   -0.0526371879    0.4039203344
C193       C   -0.0230272417   -0.0009367460    0.5059091617
C194       C   -0.0500215342   -0.0042760065    0.5457496778
H187       H    0.0056651026    0.0153500695    0.5089275998
H188       H   -0.0666093229   -0.0245943254    0.4716552015
C195       C   -0.0827060249   -0.0396406559    0.5531561766
C196       C    0.0327333765   -0.0027737933    0.1630368191
N185       N    0.0559086918    0.0341974887    0.1746267333
N186       N    0.0912241510    0.0346749829    0.1473533353
H189       H    0.1085142235    0.0598086875    0.1534268242
H190       H    0.0630288751    0.0327742594    0.2051040634
H191       H   -0.1122927781   -0.0329441340    0.5384983891
C186       C   -0.0000000000    0.0000000000    0.1558408621
H192       H   -0.0710141407   -0.0667977163    0.5381668452
H193       H   -0.0640539261    0.0262086156    0.5472042096
H194       H   -0.0515868652   -0.0634314118    0.2907766251
H195       H   -0.0868519274   -0.0533202190    0.3284600808
H196       H   -0.0608855366   -0.0159071720    0.2994655904
H197       H   -0.0796742349   -0.0625497928    0.4350821034
H198       H   -0.1149849260   -0.0594239954    0.3976048167
H199       H   -0.0743302225   -0.0766273600    0.3834977153
loop_
_geom_bond_atom_site_label_1
_geom_bond_atom_site_label_2
_geom_bond_distance
_geom_bond_site_symmetry_2
_ccdc_geom_bond_type
Zn1          O5 1.942       .   S
Zn1          O6 1.922       .   S
Zn1         O10 1.922       .   S
Zn1         O17 1.922       .   S
Zn2          O5 1.942       .   S
Zn2          O7 1.922       .   S
Zn2          O9 1.922       .   S
Zn2         O13 1.922       .   S
Zn3          O5 1.942       .   S
Zn3          O8 1.922       .   S
Zn3         O11 1.922       .   S
Zn3         O14 1.922       .   S
Zn4          O5 1.942       .   S
Zn4         O12 1.922       .   S
Zn4         O15 1.922       .   S
Zn4         O16 1.922       .   S
O6          C18 1.304       .   A
O7          C19 1.304       .   A
O8          C20 1.304       .   A
O9          C18 1.304       .   A
O10         C20 1.304       .   A
O11         C19 1.304       .   A
O12         C21 1.304       .   A
O13         C22 1.304       .   A
O14         C21 1.304       .   A
O15         C22 1.304       .   A
O16         C23 1.304       .   A
O17         C23 1.304       .   A
Zn24        O28 1.942       .   S
Zn24        O29 1.922       .   S
Zn24        O33 1.922       .   S
Zn24        O40 1.922       .   S
Zn25        O28 1.942       .   S
Zn25        O30 1.922       .   S
Zn25        O32 1.922       .   S
Zn25        O36 1.922       .   S
Zn26        O28 1.942       .   S
Zn26        O31 1.922       .   S
Zn26        O34 1.922       .   S
Zn26        O37 1.922       .   S
Zn27        O28 1.942       .   S
Zn27        O35 1.922       .   S
Zn27        O38 1.922       .   S
Zn27        O39 1.922       .   S
O29         C41 1.304       .   A
O30         C42 1.304       .   A
O31         C43 1.304       .   A
O32         C41 1.304       .   A
O33         C43 1.304       .   A
O34         C42 1.304       .   A
O35         C44 1.304       .   A
O36         C45 1.304       .   A
O37         C44 1.304       .   A
O38         C45 1.304       .   A
O39         C46 1.304       .   A
O40         C46 1.304       .   A
Zn47        O51 1.942       .   S
Zn47        O52 1.922       .   S
Zn47        O56 1.922       .   S
Zn47        O63 1.922       .   S
Zn48        O51 1.942       .   S
Zn48        O53 1.922       .   S
Zn48        O55 1.922       .   S
Zn48        O59 1.922       .   S
Zn49        O51 1.942       .   S
Zn49        O54 1.922       .   S
Zn49        O57 1.922       .   S
Zn49        O60 1.922       .   S
Zn50        O51 1.942       .   S
Zn50        O58 1.922       .   S
Zn50        O61 1.922       .   S
Zn50        O62 1.922       .   S
O52         C64 1.304       .   A
O53         C65 1.304       .   A
O54         C66 1.304       .   A
O55         C64 1.304       .   A
O56         C66 1.304       .   A
O57         C65 1.304       .   A
O58         C67 1.304       .   A
O59         C68 1.304       .   A
O60         C67 1.304       .   A
O61         C68 1.304       .   A
O62         C69 1.304       .   A
O63         C69 1.304       .   A
Zn70        O74 1.942       .   S
Zn70        O75 1.922       .   S
Zn70        O79 1.922       .   S
Zn70        O86 1.922       .   S
Zn71        O74 1.942       .   S
Zn71        O76 1.922       .   S
Zn71        O78 1.922       .   S
Zn71        O82 1.922       .   S
Zn72        O74 1.942       .   S
Zn72        O77 1.922       .   S
Zn72        O80 1.922       .   S
Zn72        O83 1.922       .   S
Zn73        O74 1.942       .   S
Zn73        O81 1.922       .   S
Zn73        O84 1.922       .   S
Zn73        O85 1.922       .   S
O75         C87 1.304       .   A
O76         C88 1.304       .   A
O77         C89 1.304       .   A
O78         C87 1.304       .   A
O79         C89 1.304       .   A
O80         C88 1.304       .   A
O81         C90 1.304       .   A
O82         C91 1.304       .   A
O83         C90 1.304       .   A
O84         C91 1.304       .   A
O85         C92 1.304       .   A
O86         C92 1.304       .   A
Zn93        O97 1.942       .   S
Zn93        O98 1.922       .   S
Zn93       O102 1.922       .   S
Zn93       O109 1.922       .   S
Zn94        O97 1.942       .   S
Zn94        O99 1.922       .   S
Zn94       O101 1.922       .   S
Zn94       O105 1.922       .   S
Zn95        O97 1.942       .   S
Zn95       O100 1.922       .   S
Zn95       O103 1.922       .   S
Zn95       O106 1.922       .   S
Zn96        O97 1.942       .   S
Zn96       O104 1.922       .   S
Zn96       O107 1.922       .   S
Zn96       O108 1.922       .   S
O98        C110 1.304       .   A
O99        C111 1.304       .   A
O100       C112 1.304       .   A
O101       C110 1.304       .   A
O102       C112 1.304       .   A
O103       C111 1.304       .   A
O104       C113 1.304       .   A
O105       C114 1.304       .   A
O106       C113 1.304       .   A
O107       C114 1.304       .   A
O108       C115 1.304       .   A
O109       C115 1.304       .   A
Zn116      O120 1.942       .   S
Zn116      O121 1.922       .   S
Zn116      O125 1.922       .   S
Zn116      O132 1.922       .   S
Zn117      O120 1.942       .   S
Zn117      O122 1.922       .   S
Zn117      O124 1.922       .   S
Zn117      O128 1.922       .   S
Zn118      O120 1.942       .   S
Zn118      O123 1.922       .   S
Zn118      O126 1.922       .   S
Zn118      O129 1.922       .   S
Zn119      O120 1.942       .   S
Zn119      O127 1.922       .   S
Zn119      O130 1.922       .   S
Zn119      O131 1.922       .   S
O121       C133 1.304       .   A
O122       C134 1.304       .   A
O123       C135 1.304       .   A
O124       C133 1.304       .   A
O125       C135 1.304       .   A
O126       C134 1.304       .   A
O127       C136 1.304       .   A
O128       C137 1.304       .   A
O129       C136 1.304       .   A
O130       C137 1.304       .   A
O131       C138 1.304       .   A
O132       C138 1.304       .   A
Zn139      O143 1.942       .   S
Zn139      O144 1.922       .   S
Zn139      O148 1.922       .   S
Zn139      O155 1.922       .   S
Zn140      O143 1.942       .   S
Zn140      O145 1.922       .   S
Zn140      O147 1.922       .   S
Zn140      O151 1.922       .   S
Zn141      O143 1.942       .   S
Zn141      O146 1.922       .   S
Zn141      O149 1.922       .   S
Zn141      O152 1.922       .   S
Zn142      O143 1.942       .   S
Zn142      O150 1.922       .   S
Zn142      O153 1.922       .   S
Zn142      O154 1.922       .   S
O144       C156 1.304       .   A
O145       C157 1.304       .   A
O146       C158 1.304       .   A
O147       C156 1.304       .   A
O148       C158 1.304       .   A
O149       C157 1.304       .   A
O150       C159 1.304       .   A
O151       C160 1.304       .   A
O152       C159 1.304       .   A
O153       C160 1.304       .   A
O154       C161 1.304       .   A
O155       C161 1.304       .   A
Zn162      O166 1.942       .   S
Zn162      O167 1.922       .   S
Zn162      O171 1.922       .   S
Zn162      O178 1.922       .   S
Zn163      O166 1.942       .   S
Zn163      O168 1.922       .   S
Zn163      O170 1.922       .   S
Zn163      O174 1.922       .   S
Zn164      O166 1.942       .   S
Zn164      O169 1.922       .   S
Zn164      O172 1.922       .   S
Zn164      O175 1.922       .   S
Zn165      O166 1.942       .   S
Zn165      O173 1.922       .   S
Zn165      O176 1.922       .   S
Zn165      O177 1.922       .   S
O167       C179 1.304       .   A
O168       C180 1.304       .   A
O169       C181 1.304       .   A
O170       C179 1.304       .   A
O171       C181 1.304       .   A
O172       C180 1.304       .   A
O173       C182 1.304       .   A
O174       C183 1.304       .   A
O175       C182 1.304       .   A
O176       C183 1.304       .   A
O177       C184 1.304       .   A
O178       C184 1.304       .   A
C185       C185 0.088       .   A
C185       C189 0.088       .   A
C185       C186 0.090       .   A
C185       H186 0.073       .   A
C186       C187 0.090       .   A
C186       H185 0.073       .   A
C187       C188 0.093       .   A
C187       C190 0.103       .   A
C188       C189 0.094       .   A
C188       C192 0.104       .   A
C189       C191 0.102       .   A
C190       C193 0.091       .   A
C190       H188 0.072       .   A
C191       H194 0.074       .   A
C191       H195 0.073       .   A
C191       H196 0.072       .   A
C192       H197 0.072       .   A
C192       H198 0.074       .   A
C192       H199 0.071       .   A
C193       C194 0.106       .   A
C193       H187 0.073       .   A
C194       C195 0.107       .   A
C194       N186 0.098       .   A
C194       H193 0.074       .   A
C195       C196 0.106       .   A
C195       H191 0.074       .   A
C195       C186 0.122       .   A
C195       H192 0.073       .   A
C196       N185 0.099       .   A
C196       C186 0.074       .   A
N185       N186 0.098       .   A
N185       H190 0.069       .   A
N186       H189 0.068       .   A
C216       C216 0.088       .   A
C216       C220 0.088       .   A
C216       C217 0.090       .   A
C216       H217 0.073       .   A
C217       C218 0.090       .   A
C217       H216 0.073       .   A
C218       C219 0.093       .   A
C218       C221 0.103       .   A
C219       C220 0.094       .   A
C219       C223 0.104       .   A
C220       C222 0.102       .   A
C221       C224 0.091       .   A
C221       H219 0.072       .   A
C222       H225 0.074       .   A
C222       H226 0.073       .   A
C222       H227 0.072       .   A
C223       H228 0.072       .   A
C223       H229 0.074       .   A
C223       H230 0.071       .   A
C224       C225 0.106       .   A
C224       H218 0.073       .   A
C225       C226 0.107       .   A
C225       N217 0.098       .   A
C225       H224 0.074       .   A
C226       C227 0.106       .   A
C226       H222 0.074       .   A
C226       C217 0.122       .   A
C226       H223 0.073       .   A
C227       N216 0.099       .   A
C227       C217 0.074       .   A
N216       N217 0.098       .   A
N216       H221 0.069       .   A
N217       H220 0.068       .   A
C247       C247 0.088       .   A
C247       C251 0.088       .   A
C247       C248 0.090       .   A
C247       H248 0.073       .   A
C248       C249 0.090       .   A
C248       H247 0.073       .   A
C249       C250 0.093       .   A
C249       C252 0.103       .   A
C250       C251 0.094       .   A
C250       C254 0.104       .   A
C251       C253 0.102       .   A
C252       C255 0.091       .   A
C252       H250 0.072       .   A
C253       H256 0.074       .   A
C253       H257 0.073       .   A
C253       H258 0.072       .   A
C254       H259 0.072       .   A
C254       H260 0.074       .   A
C254       H261 0.071       .   A
C255       C256 0.106       .   A
C255       H249 0.073       .   A
C256       C257 0.107       .   A
C256       N248 0.098       .   A
C256       H255 0.074       .   A
C257       C258 0.106       .   A
C257       H253 0.074       .   A
C257       C248 0.122       .   A
C257       H254 0.073       .   A
C258       N247 0.099       .   A
C258       C248 0.074       .   A
N247       N248 0.098       .   A
N247       H252 0.069       .   A
N248       H251 0.068       .   A
C278       C278 0.088       .   A
C278       C282 0.088       .   A
C278       C279 0.090       .   A
C278       H279 0.073       .   A
C279       C280 0.090       .   A
C279       H278 0.073       .   A
C280       C281 0.093       .   A
C280       C283 0.103       .   A
C281       C282 0.094       .   A
C281       C285 0.104       .   A
C282       C284 0.102       .   A
C283       C286 0.091       .   A
C283       H281 0.072       .   A
C284       H287 0.074       .   A
C284       H288 0.073       .   A
C284       H289 0.072       .   A
C285       H290 0.072       .   A
C285       H291 0.074       .   A
C285       H292 0.071       .   A
C286       C287 0.106       .   A
C286       H280 0.073       .   A
C287       C288 0.107       .   A
C287       N279 0.098       .   A
C287       H286 0.074       .   A
C288       C289 0.106       .   A
C288       H284 0.074       .   A
C288       C279 0.122       .   A
C288       H285 0.073       .   A
C289       N278 0.099       .   A
C289       C279 0.074       .   A
N278       N279 0.098       .   A
N278       H283 0.069       .   A
N279       H282 0.068       .   A
C309       C309 0.088       .   A
C309       C313 0.088       .   A
C309       C310 0.090       .   A
C309       H310 0.073       .   A
C310       C311 0.090       .   A
C310       H309 0.073       .   A
C311       C312 0.093       .   A
C311       C314 0.103       .   A
C312       C313 0.094       .   A
C312       C316 0.104       .   A
C313       C315 0.102       .   A
C314       C317 0.091       .   A
C314       H312 0.072       .   A
C315       H318 0.074       .   A
C315       H319 0.073       .   A
C315       H320 0.072       .   A
C316       H321 0.072       .   A
C316       H322 0.074       .   A
C316       H323 0.071       .   A
C317       C318 0.106       .   A
C317       H311 0.073       .   A
C318       C319 0.107       .   A
C318       N310 0.098       .   A
C318       H317 0.074       .   A
C319       C320 0.106       .   A
C319       H315 0.074       .   A
C319       C310 0.122       .   A
C319       H316 0.073       .   A
C320       N309 0.099       .   A
C320       C310 0.074       .   A
N309       N310 0.098       .   A
N309       H314 0.069       .   A
N310       H313 0.068       .   A
C340       C340 0.088       .   A
C340       C344 0.088       .   A
C340       C341 0.090       .   A
C340       H341 0.073       .   A
C341       C342 0.090       .   A
C341       H340 0.073       .   A
C342       C343 0.093       .   A
C342       C345 0.103       .   A
C343       C344 0.094       .   A
C343       C347 0.104       .   A
C344       C346 0.102       .   A
C345       C348 0.091       .   A
C345       H343 0.072       .   A
C346       H349 0.074       .   A
C346       H350 0.073       .   A
C346       H351 0.072       .   A
C347       H352 0.072       .   A
C347       H353 0.074       .   A
C347       H354 0.071       .   A
C348       C349 0.106       .   A
C348       H342 0.073       .   A
C349       C350 0.107       .   A
C349       N341 0.098       .   A
C349       H348 0.074       .   A
C350       C351 0.106       .   A
C350       H346 0.074       .   A
C350       C341 0.122       .   A
C350       H347 0.073       .   A
C351       N340 0.099       .   A
C351       C341 0.074       .   A
N340       N341 0.098       .   A
N340       H345 0.069       .   A
N341       H344 0.068       .   A
C371       C371 0.088       .   A
C371       C375 0.088       .   A
C371       C372 0.090       .   A
C371       H372 0.073       .   A
C372       C373 0.090       .   A
C372       H371 0.073       .   A
C373       C374 0.093       .   A
C373       C376 0.103       .   A
C374       C375 0.094       .   A
C374       C378 0.104       .   A
C375       C377 0.102       .   A
C376       C379 0.091       .   A
C376       H374 0.072       .   A
C377       H380 0.074       .   A
C377       H381 0.073       .   A
C377       H382 0.072       .   A
C378       H383 0.072       .   A
C378       H384 0.074       .   A
C378       H385 0.071       .   A
C379       C380 0.106       .   A
C379       H373 0.073       .   A
C380       C381 0.107       .   A
C380       N372 0.098       .   A
C380       H379 0.074       .   A
C381       C382 0.106       .   A
C381       H377 0.074       .   A
C381       C372 0.122       .   A
C381       H378 0.073       .   A
C382       N371 0.099       .   A
C382       C372 0.074       .   A
N371       N372 0.098       .   A
N371       H376 0.069       .   A
N372       H375 0.068       .   A
C402       C402 0.088       .   A
C402       C406 0.088       .   A
C402       C403 0.090       .   A
C402       H403 0.073       .   A
C403       C404 0.090       .   A
C403       H402 0.073       .   A
C404       C405 0.093       .   A
C404       C407 0.103       .   A
C405       C406 0.094       .   A
C405       C409 0.104       .   A
C406       C408 0.102       .   A
C407       C410 0.091       .   A
C407       H405 0.072       .   A
C408       H411 0.074       .   A
C408       H412 0.073       .   A
C408       H413 0.072       .   A
C409       H414 0.072       .   A
C409       H415 0.074       .   A
C409       H416 0.071       .   A
C410       C411 0.106       .   A
C410       H404 0.073       .   A
C411       C412 0.107       .   A
C411       N403 0.098       .   A
C411       H410 0.074       .   A
C412       C413 0.106       .   A
C412       H408 0.074       .   A
C412       C403 0.122       .   A
C412       H409 0.073       .   A
C413       N402 0.099       .   A
C413       C403 0.074       .   A
N402       N403 0.098       .   A
N402       H407 0.069       .   A
N403       H406 0.068       .   A
C433       C433 0.088       .   A
C433       C437 0.088       .   A
C433       C434 0.090       .   A
C433       H434 0.073       .   A
C434       C435 0.090       .   A
C434       H433 0.073       .   A
C435       C436 0.093       .   A
C435       C438 0.103       .   A
C436       C437 0.094       .   A
C436       C440 0.104       .   A
C437       C439 0.102       .   A
C438       C441 0.091       .   A
C438       H436 0.072       .   A
C439       H442 0.074       .   A
C439       H443 0.073       .   A
C439       H444 0.072       .   A
C440       H445 0.072       .   A
C440       H446 0.074       .   A
C440       H447 0.071       .   A
C441       C442 0.106       .   A
C441       H435 0.073       .   A
C442       C443 0.107       .   A
C442       N434 0.098       .   A
C442       H441 0.074       .   A
C443       C444 0.106       .   A
C443       H439 0.074       .   A
C443       C434 0.122       .   A
C443       H440 0.073       .   A
C444       N433 0.099       .   A
C444       C434 0.074       .   A
N433       N434 0.098       .   A
N433       H438 0.069       .   A
N434       H437 0.068       .   A
C464       C464 0.088       .   A
C464       C468 0.088       .   A
C464       C465 0.090       .   A
C464       H465 0.073       .   A
C465       C466 0.090       .   A
C465       H464 0.073       .   A
C466       C467 0.093       .   A
C466       C469 0.103       .   A
C467       C468 0.094       .   A
C467       C471 0.104       .   A
C468       C470 0.102       .   A
C469       C472 0.091       .   A
C469       H467 0.072       .   A
C470       H473 0.074       .   A
C470       H474 0.073       .   A
C470       H475 0.072       .   A
C471       H476 0.072       .   A
C471       H477 0.074       .   A
C471       H478 0.071       .   A
C472       C473 0.106       .   A
C472       H466 0.073       .   A
C473       C474 0.107       .   A
C473       N465 0.098       .   A
C473       H472 0.074       .   A
C474       C475 0.106       .   A
C474       H470 0.074       .   A
C474       C465 0.122       .   A
C474       H471 0.073       .   A
C475       N464 0.099       .   A
C475       C465 0.074       .   A
N464       N465 0.098       .   A
N464       H469 0.069       .   A
N465       H468 0.068       .   A
C495       C495 0.088       .   A
C495       C499 0.088       .   A
C495       C496 0.090       .   A
C495       H496 0.073       .   A
C496       C497 0.090       .   A
C496       H495 0.073       .   A
C497       C498 0.093       .   A
C497       C500 0.103       .   A
C498       C499 0.094       .   A
C498       C502 0.104       .   A
C499       C501 0.102       .   A
C500       C503 0.091       .   A
C500       H498 0.072       .   A
C501       H504 0.074       .   A
C501       H505 0.073       .   A
C501       H506 0.072       .   A
C502       H507 0.072       .   A
C502       H508 0.074       .   A
C502       H509 0.071       .   A
C503       C504 0.106       .   A
C503       H497 0.073       .   A
C504       C505 0.107       .   A
C504       N496 0.098       .   A
C504       H503 0.074       .   A
C505       C506 0.106       .   A
C505       H501 0.074       .   A
C505       C496 0.122       .   A
C505       H502 0.073       .   A
C506       N495 0.099       .   A
C506       C496 0.074       .   A
N495       N496 0.098       .   A
N495       H500 0.069       .   A
N496       H499 0.068       .   A
C526       C526 0.088       .   A
C526       C530 0.088       .   A
C526       C527 0.090       .   A
C526       H527 0.073       .   A
C527       C528 0.090       .   A
C527       H526 0.073       .   A
C528       C529 0.093       .   A
C528       C531 0.103       .   A
C529       C530 0.094       .   A
C529       C533 0.104       .   A
C530       C532 0.102       .   A
C531       C534 0.091       .   A
C531       H529 0.072       .   A
C532       H535 0.074       .   A
C532       H536 0.073       .   A
C532       H537 0.072       .   A
C533       H538 0.072       .   A
C533       H539 0.074       .   A
C533       H540 0.071       .   A
C534       C535 0.106       .   A
C534       H528 0.073       .   A
C535       C536 0.107       .   A
C535       N527 0.098       .   A
C535       H534 0.074       .   A
C536       C537 0.106       .   A
C536       H532 0.074       .   A
C536       C527 0.122       .   A
C536       H533 0.073       .   A
C537       N526 0.099       .   A
C537       C527 0.074       .   A
N526       N527 0.098       .   A
N526       H531 0.069       .   A
N527       H530 0.068       .   A
C557       C557 0.088       .   A
C557       C561 0.088       .   A
C557       C558 0.090       .   A
C557       H558 0.073       .   A
C558       C559 0.090       .   A
C558       H557 0.073       .   A
C559       C560 0.093       .   A
C559       C562 0.103       .   A
C560       C561 0.094       .   A
C560       C564 0.104       .   A
C561       C563 0.102       .   A
C562       C565 0.091       .   A
C562       H560 0.072       .   A
C563       H566 0.074       .   A
C563       H567 0.073       .   A
C563       H568 0.072       .   A
C564       H569 0.072       .   A
C564       H570 0.074       .   A
C564       H571 0.071       .   A
C565       C566 0.106       .   A
C565       H559 0.073       .   A
C566       C567 0.107       .   A
C566       N558 0.098       .   A
C566       H565 0.074       .   A
C567       C568 0.106       .   A
C567       H563 0.074       .   A
C567       C558 0.122       .   A
C567       H564 0.073       .   A
C568       N557 0.099       .   A
C568       C558 0.074       .   A
N557       N558 0.098       .   A
N557       H562 0.069       .   A
N558       H561 0.068       .   A
C588       C588 0.088       .   A
C588       C592 0.088       .   A
C588       C589 0.090       .   A
C588       H589 0.073       .   A
C589       C590 0.090       .   A
C589       H588 0.073       .   A
C590       C591 0.093       .   A
C590       C593 0.103       .   A
C591       C592 0.094       .   A
C591       C595 0.104       .   A
C592       C594 0.102       .   A
C593       C596 0.091       .   A
C593       H591 0.072       .   A
C594       H597 0.074       .   A
C594       H598 0.073       .   A
C594       H599 0.072       .   A
C595       H600 0.072       .   A
C595       H601 0.074       .   A
C595       H602 0.071       .   A
C596       C597 0.106       .   A
C596       H590 0.073       .   A
C597       C598 0.107       .   A
C597       N589 0.098       .   A
C597       H596 0.074       .   A
C598       C599 0.106       .   A
C598       H594 0.074       .   A
C598       C589 0.122       .   A
C598       H595 0.073       .   A
C599       N588 0.099       .   A
C599       C589 0.074       .   A
N588       N589 0.098       .   A
N588       H593 0.069       .   A
N589       H592 0.068       .   A
C619       C619 0.088       .   A
C619       C623 0.088       .   A
C619       C620 0.090       .   A
C619       H620 0.073       .   A
C620       C621 0.090       .   A
C620       H619 0.073       .   A
C621       C622 0.093       .   A
C621       C624 0.103       .   A
C622       C623 0.094       .   A
C622       C626 0.104       .   A
C623       C625 0.102       .   A
C624       C627 0.091       .   A
C624       H622 0.072       .   A
C625       H628 0.074       .   A
C625       H629 0.073       .   A
C625       H630 0.072       .   A
C626       H631 0.072       .   A
C626       H632 0.074       .   A
C626       H633 0.071       .   A
C627       C628 0.106       .   A
C627       H621 0.073       .   A
C628       C629 0.107       .   A
C628       N620 0.098       .   A
C628       H627 0.074       .   A
C629       C630 0.106       .   A
C629       H625 0.074       .   A
C629       C620 0.122       .   A
C629       H626 0.073       .   A
C630       N619 0.099       .   A
C630       C620 0.074       .   A
N619       N620 0.098       .   A
N619       H624 0.069       .   A
N620       H623 0.068       .   A
C650       C650 0.088       .   A
C650       C654 0.088       .   A
C650       C651 0.090       .   A
C650       H651 0.073       .   A
C651       C652 0.090       .   A
C651       H650 0.073       .   A
C652       C653 0.093       .   A
C652       C655 0.103       .   A
C653       C654 0.094       .   A
C653       C657 0.104       .   A
C654       C656 0.102       .   A
C655       C658 0.091       .   A
C655       H653 0.072       .   A
C656       H659 0.074       .   A
C656       H660 0.073       .   A
C656       H661 0.072       .   A
C657       H662 0.072       .   A
C657       H663 0.074       .   A
C657       H664 0.071       .   A
C658       C659 0.106       .   A
C658       H652 0.073       .   A
C659       C660 0.107       .   A
C659       N651 0.098       .   A
C659       H658 0.074       .   A
C660       C661 0.106       .   A
C660       H656 0.074       .   A
C660       C651 0.122       .   A
C660       H657 0.073       .   A
C661       N650 0.099       .   A
C661       C651 0.074       .   A
N650       N651 0.098       .   A
N650       H655 0.069       .   A
N651       H654 0.068       .   A
C681       C681 0.088       .   A
C681       C685 0.088       .   A
C681       C682 0.090       .   A
C681       H682 0.073       .   A
C682       C683 0.090       .   A
C682       H681 0.073       .   A
C683       C684 0.093       .   A
C683       C686 0.103       .   A
C684       C685 0.094       .   A
C684       C688 0.104       .   A
C685       C687 0.102       .   A
C686       C689 0.091       .   A
C686       H684 0.072       .   A
C687       H690 0.074       .   A
C687       H691 0.073       .   A
C687       H692 0.072       .   A
C688       H693 0.072       .   A
C688       H694 0.074       .   A
C688       H695 0.071       .   A
C689       C690 0.106       .   A
C689       H683 0.073       .   A
C690       C691 0.107       .   A
C690       N682 0.098       .   A
C690       H689 0.074       .   A
C691       C692 0.106       .   A
C691       H687 0.074       .   A
C691       C682 0.122       .   A
C691       H688 0.073       .   A
C692       N681 0.099       .   A
C692       C682 0.074       .   A
N681       N682 0.098       .   A
N681       H686 0.069       .   A
N682       H685 0.068       .   A
C712       C712 0.088       .   A
C712       C716 0.088       .   A
C712       C713 0.090       .   A
C712       H713 0.073       .   A
C713       C714 0.090       .   A
C713       H712 0.073       .   A
C714       C715 0.093       .   A
C714       C717 0.103       .   A
C715       C716 0.094       .   A
C715       C719 0.104       .   A
C716       C718 0.102       .   A
C717       C720 0.091       .   A
C717       H715 0.072       .   A
C718       H721 0.074       .   A
C718       H722 0.073       .   A
C718       H723 0.072       .   A
C719       H724 0.072       .   A
C719       H725 0.074       .   A
C719       H726 0.071       .   A
C720       C721 0.106       .   A
C720       H714 0.073       .   A
C721       C722 0.107       .   A
C721       N713 0.098       .   A
C721       H720 0.074       .   A
C722       C723 0.106       .   A
C722       H718 0.074       .   A
C722       C713 0.122       .   A
C722       H719 0.073       .   A
C723       N712 0.099       .   A
C723       C713 0.074       .   A
N712       N713 0.098       .   A
N712       H717 0.069       .   A
N713       H716 0.068       .   A
C743       C743 0.088       .   A
C743       C747 0.088       .   A
C743       C744 0.090       .   A
C743       H744 0.073       .   A
C744       C745 0.090       .   A
C744       H743 0.073       .   A
C745       C746 0.093       .   A
C745       C748 0.103       .   A
C746       C747 0.094       .   A
C746       C750 0.104       .   A
C747       C749 0.102       .   A
C748       C751 0.091       .   A
C748       H746 0.072       .   A
C749       H752 0.074       .   A
C749       H753 0.073       .   A
C749       H754 0.072       .   A
C750       H755 0.072       .   A
C750       H756 0.074       .   A
C750       H757 0.071       .   A
C751       C752 0.106       .   A
C751       H745 0.073       .   A
C752       C753 0.107       .   A
C752       N744 0.098       .   A
C752       H751 0.074       .   A
C753       C754 0.106       .   A
C753       H749 0.074       .   A
C753       C744 0.122       .   A
C753       H750 0.073       .   A
C754       N743 0.099       .   A
C754       C744 0.074       .   A
N743       N744 0.098       .   A
N743       H748 0.069       .   A
N744       H747 0.068       .   A
C774       C774 0.088       .   A
C774       C778 0.088       .   A
C774       C775 0.090       .   A
C774       H775 0.073       .   A
C775       C776 0.090       .   A
C775       H774 0.073       .   A
C776       C777 0.093       .   A
C776       C779 0.103       .   A
C777       C778 0.094       .   A
C777       C781 0.104       .   A
C778       C780 0.102       .   A
C779       C782 0.091       .   A
C779       H777 0.072       .   A
C780       H783 0.074       .   A
C780       H784 0.073       .   A
C780       H785 0.072       .   A
C781       H786 0.072       .   A
C781       H787 0.074       .   A
C781       H788 0.071       .   A
C782       C783 0.106       .   A
C782       H776 0.073       .   A
C783       C784 0.107       .   A
C783       N775 0.098       .   A
C783       H782 0.074       .   A
C784       C785 0.106       .   A
C784       H780 0.074       .   A
C784       C775 0.122       .   A
C784       H781 0.073       .   A
C785       N774 0.099       .   A
C785       C775 0.074       .   A
N774       N775 0.098       .   A
N774       H779 0.069       .   A
N775       H778 0.068       .   A
C805       C805 0.088       .   A
C805       C809 0.088       .   A
C805       C806 0.090       .   A
C805       H806 0.073       .   A
C806       C807 0.090       .   A
C806       H805 0.073       .   A
C807       C808 0.093       .   A
C807       C810 0.103       .   A
C808       C809 0.094       .   A
C808       C812 0.104       .   A
C809       C811 0.102       .   A
C810       C813 0.091       .   A
C810       H808 0.072       .   A
C811       H814 0.074       .   A
C811       H815 0.073       .   A
C811       H816 0.072       .   A
C812       H817 0.072       .   A
C812       H818 0.074       .   A
C812       H819 0.071       .   A
C813       C814 0.106       .   A
C813       H807 0.073       .   A
C814       C815 0.107       .   A
C814       N806 0.098       .   A
C814       H813 0.074       .   A
C815       C816 0.106       .   A
C815       H811 0.074       .   A
C815       C806 0.122       .   A
C815       H812 0.073       .   A
C816       N805 0.099       .   A
C816       C806 0.074       .   A
N805       N806 0.098       .   A
N805       H810 0.069       .   A
N806       H809 0.068       .   A
C836       C836 0.088       .   A
C836       C840 0.088       .   A
C836       C837 0.090       .   A
C836       H837 0.073       .   A
C837       C838 0.090       .   A
C837       H836 0.073       .   A
C838       C839 0.093       .   A
C838       C841 0.103       .   A
C839       C840 0.094       .   A
C839       C843 0.104       .   A
C840       C842 0.102       .   A
C841       C844 0.091       .   A
C841       H839 0.072       .   A
C842       H845 0.074       .   A
C842       H846 0.073       .   A
C842       H847 0.072       .   A
C843       H848 0.072       .   A
C843       H849 0.074       .   A
C843       H850 0.071       .   A
C844       C845 0.106       .   A
C844       H838 0.073       .   A
C845       C846 0.107       .   A
C845       N837 0.098       .   A
C845       H844 0.074       .   A
C846       C847 0.106       .   A
C846       H842 0.074       .   A
C846       C837 0.122       .   A
C846       H843 0.073       .   A
C847       N836 0.099       .   A
C847       C837 0.074       .   A
N836       N837 0.098       .   A
N836       H841 0.069       .   A
N837       H840 0.068       .   A
C867       C867 0.088       .   A
C867       C871 0.088       .   A
C867       C868 0.090       .   A
C867       H868 0.073       .   A
C868       C869 0.090       .   A
C868       H867 0.073       .   A
C869       C870 0.093       .   A
C869       C872 0.103       .   A
C870       C871 0.094       .   A
C870       C874 0.104       .   A
C871       C873 0.102       .   A
C872       C875 0.091       .   A
C872       H870 0.072       .   A
C873       H876 0.074       .   A
C873       H877 0.073       .   A
C873       H878 0.072       .   A
C874       H879 0.072       .   A
C874       H880 0.074       .   A
C874       H881 0.071       .   A
C875       C876 0.106       .   A
C875       H869 0.073       .   A
C876       C877 0.107       .   A
C876       N868 0.098       .   A
C876       H875 0.074       .   A
C877       C878 0.106       .   A
C877       H873 0.074       .   A
C877       C868 0.122       .   A
C877       H874 0.073       .   A
C878       N867 0.099       .   A
C878       C868 0.074       .   A
N867       N868 0.098       .   A
N867       H872 0.069       .   A
N868       H871 0.068       .   A
C898       C898 0.088       .   A
C898       C902 0.088       .   A
C898       C899 0.090       .   A
C898       H899 0.073       .   A
C899       C900 0.090       .   A
C899       H898 0.073       .   A
C900       C901 0.093       .   A
C900       C903 0.103       .   A
C901       C902 0.094       .   A
C901       C905 0.104       .   A
C902       C904 0.102       .   A
C903       C906 0.091       .   A
C903       H901 0.072       .   A
C904       H907 0.074       .   A
C904       H908 0.073       .   A
C904       H909 0.072       .   A
C905       H910 0.072       .   A
C905       H911 0.074       .   A
C905       H912 0.071       .   A
C906       C907 0.106       .   A
C906       H900 0.073       .   A
C907       C908 0.107       .   A
C907       N899 0.098       .   A
C907       H906 0.074       .   A
C908       C909 0.106       .   A
C908       H904 0.074       .   A
C908       C899 0.122       .   A
C908       H905 0.073       .   A
C909       N898 0.099       .   A
C909       C899 0.074       .   A
N898       N899 0.098       .   A
N898       H903 0.069       .   A
N899       H902 0.068       .   A
C18        C278 1.540       .   S
C19        C309 1.540       .   S
C20        C186 1.540       .   S
C21        C248 1.540       .   S
C22        C216 1.540       .   S
C23        C341 1.540       .   S
C41        C185 1.540   1_655   S
C42        C371 1.540       .   S
C43        C434 1.540       .   S
C44        C217 1.540   1_656   S
C45        C464 1.540       .   S
C46        C403 1.540       .   S
C64        C340 1.540   1_665   S
C65        C495 1.540       .   S
C66        C588 1.540       .   S
C67        C310 1.540   1_655   S
C68        C557 1.540       .   S
C69        C526 1.540       .   S
C87        C650 1.540       .   S
C88        C433 1.540       .   S
C89        C496 1.540       .   S
C90        C619 1.540       .   S
C91        C527 1.540   1_556   S
C92        C465 1.540   1_565   S
C110       C247 1.540   1_565   S
C111       C681 1.540       .   S
C112       C774 1.540       .   S
C113       C279 1.540   1_665   S
C114       C743 1.540       .   S
C115       C712 1.540       .   S
C133       C372 1.540   1_465   S
C134       C682 1.540       .   S
C135       C805 1.540       .   S
C136       C402 1.540   1_565   S
C137       C836 1.540       .   S
C138       C713 1.540   1_556   S
C156       C558 1.540   1_455   S
C157       C744 1.540   1_545   S
C158       C898 1.540       .   S
C159       C589 1.540       .   S
C160       C868 1.540       .   S
C161       C775 1.540       .   S
C179       C620 1.540   1_455   S
C180       C806 1.540   1_545   S
C181       C867 1.540       .   S
C182       C651 1.540       .   S
C183       C899 1.540   1_556   S
C184       C837 1.540       .   S
