data_pcu_v1-6c_Zn_1_Ch_1-47_fer_tobacco
_audit_creation_date              2021-02-03
_audit_creation_method            'tobacco_3.0'
_symmetry_space_group_name_H-M    'P1'
_symmetry_Int_Tables_number       1
_symmetry_cell_setting            triclinic
loop_
_symmetry_equiv_pos_as_xyz
  x,y,z
_cell_length_a                    38.29643597330946
_cell_length_b                    38.29643597330946
_cell_length_c                    38.29643597330946
_cell_angle_alpha                 90.0
_cell_angle_beta                  90.0
_cell_angle_gamma                 90.0
loop_
_atom_site_label
_atom_site_type_symbol
_atom_site_fract_x
_atom_site_fract_y
_atom_site_fract_z
_atom_site_charge
Zn1       Zn   -0.0292768758   -0.0292768758    0.0292768758          1.4972
Zn2       Zn    0.0292768758    0.0292768758    0.0292768758          1.4936
Zn3       Zn    0.0292768758   -0.0292768758   -0.0292768758          1.4911
Zn4       Zn   -0.0292768758    0.0292768758   -0.0292768758          1.4948
O5         O    0.0000000000    0.0000000000    0.0000000000         -2.2545
O6         O   -0.0215163625   -0.0215163625    0.0782474902         -1.1608
O7         O    0.0782474902    0.0215163625    0.0215163625          -1.159
O8         O    0.0215163625   -0.0782474902   -0.0215163625         -1.1542
O9         O    0.0215163625    0.0215163625    0.0782474902          -1.161
O10        O   -0.0215163625   -0.0782474902    0.0215163625          -1.157
O11        O    0.0782474902   -0.0215163625   -0.0215163625         -1.1628
O12        O   -0.0215163625    0.0215163625   -0.0782474902         -1.1567
O13        O    0.0215163625    0.0782474902    0.0215163625         -1.1643
O14        O    0.0215163625   -0.0215163625   -0.0782474902         -1.1582
O15        O   -0.0215163625    0.0782474902   -0.0215163625         -1.1629
O16        O   -0.0782474902    0.0215163625   -0.0215163625          -1.162
O17        O   -0.0782474902   -0.0215163625    0.0215163625         -1.1598
C18        C   -0.0000000000   -0.0000000000    0.0935543977          0.3581
C19        C    0.0935543977   -0.0000000000   -0.0000000000           0.363
C20        C   -0.0000000000   -0.0935543977    0.0000000000          0.3526
C21        C    0.0000000000    0.0000000000   -0.0935543977          0.3563
C22        C    0.0000000000    0.0935543977   -0.0000000000          0.3677
C23        C   -0.0935543977    0.0000000000    0.0000000000          0.3582
Zn24      Zn    0.9707231242    0.0292768758    0.4707231242          1.4972
Zn25      Zn    1.0292768758   -0.0292768758    0.4707231242          1.4936
Zn26      Zn    1.0292768758    0.0292768758    0.5292768758          1.4911
Zn27      Zn    0.9707231242   -0.0292768758    0.5292768758          1.4948
O28        O    1.0000000000    0.0000000000    0.5000000000         -2.2545
O29        O    0.9784836375    0.0215163625    0.4217525098         -1.1608
O30        O    1.0782474902   -0.0215163625    0.4784836375          -1.159
O31        O    1.0215163625    0.0782474902    0.5215163625         -1.1542
O32        O    1.0215163625   -0.0215163625    0.4217525098          -1.161
O33        O    0.9784836375    0.0782474902    0.4784836375          -1.157
O34        O    1.0782474902    0.0215163625    0.5215163625         -1.1628
O35        O    0.9784836375   -0.0215163625    0.5782474902         -1.1567
O36        O    1.0215163625   -0.0782474902    0.4784836375         -1.1643
O37        O    1.0215163625    0.0215163625    0.5782474902         -1.1582
O38        O    0.9784836375   -0.0782474902    0.5215163625         -1.1629
O39        O    0.9217525098   -0.0215163625    0.5215163625          -1.162
O40        O    0.9217525098    0.0215163625    0.4784836375         -1.1598
C41        C    1.0000000000    0.0000000000    0.4064456023          0.3581
C42        C    1.0935543977    0.0000000000    0.5000000000           0.363
C43        C    1.0000000000    0.0935543977    0.5000000000          0.3526
C44        C    1.0000000000    0.0000000000    0.5935543977          0.3563
C45        C    1.0000000000   -0.0935543977    0.5000000000          0.3677
C46        C    0.9064456023    0.0000000000    0.5000000000          0.3582
Zn47      Zn    1.0292768758    0.5292768758    0.0292768758          1.4972
Zn48      Zn    0.9707231242    0.4707231242    0.0292768758          1.4936
Zn49      Zn    0.9707231242    0.5292768758   -0.0292768758          1.4911
Zn50      Zn    1.0292768758    0.4707231242   -0.0292768758          1.4948
O51        O    1.0000000000    0.5000000000    0.0000000000         -2.2545
O52        O    1.0215163625    0.5215163625    0.0782474902         -1.1608
O53        O    0.9217525098    0.4784836375    0.0215163625          -1.159
O54        O    0.9784836375    0.5782474902   -0.0215163625         -1.1542
O55        O    0.9784836375    0.4784836375    0.0782474902          -1.161
O56        O    1.0215163625    0.5782474902    0.0215163625          -1.157
O57        O    0.9217525098    0.5215163625   -0.0215163625         -1.1628
O58        O    1.0215163625    0.4784836375   -0.0782474902         -1.1567
O59        O    0.9784836375    0.4217525098    0.0215163625         -1.1643
O60        O    0.9784836375    0.5215163625   -0.0782474902         -1.1582
O61        O    1.0215163625    0.4217525098   -0.0215163625         -1.1629
O62        O    1.0782474902    0.4784836375   -0.0215163625          -1.162
O63        O    1.0782474902    0.5215163625    0.0215163625         -1.1598
C64        C    1.0000000000    0.5000000000    0.0935543977          0.3581
C65        C    0.9064456023    0.5000000000    0.0000000000           0.363
C66        C    1.0000000000    0.5935543977    0.0000000000          0.3526
C67        C    1.0000000000    0.5000000000   -0.0935543977          0.3563
C68        C    1.0000000000    0.4064456023    0.0000000000          0.3677
C69        C    1.0935543977    0.5000000000    0.0000000000          0.3582
Zn70      Zn    0.9707231242    0.5292768758    0.5292768758          1.4972
Zn71      Zn    1.0292768758    0.5292768758    0.4707231242          1.4936
Zn72      Zn    1.0292768758    0.4707231242    0.5292768758          1.4911
Zn73      Zn    0.9707231242    0.4707231242    0.4707231242          1.4948
O74        O    1.0000000000    0.5000000000    0.5000000000         -2.2545
O75        O    0.9784836375    0.5782474902    0.5215163625         -1.1608
O76        O    1.0782474902    0.5215163625    0.4784836375          -1.159
O77        O    1.0215163625    0.4784836375    0.5782474902         -1.1542
O78        O    1.0215163625    0.5782474902    0.4784836375          -1.161
O79        O    0.9784836375    0.5215163625    0.5782474902          -1.157
O80        O    1.0782474902    0.4784836375    0.5215163625         -1.1628
O81        O    0.9784836375    0.4217525098    0.4784836375         -1.1567
O82        O    1.0215163625    0.5215163625    0.4217525098         -1.1643
O83        O    1.0215163625    0.4217525098    0.5215163625         -1.1582
O84        O    0.9784836375    0.4784836375    0.4217525098         -1.1629
O85        O    0.9217525098    0.4784836375    0.4784836375          -1.162
O86        O    0.9217525098    0.5215163625    0.5215163625         -1.1598
C87        C    1.0000000000    0.5935543977    0.5000000000          0.3581
C88        C    1.0935543977    0.5000000000    0.5000000000           0.363
C89        C    1.0000000000    0.5000000000    0.5935543977          0.3526
C90        C    1.0000000000    0.4064456023    0.5000000000          0.3563
C91        C    1.0000000000    0.5000000000    0.4064456023          0.3677
C92        C    0.9064456023    0.5000000000    0.5000000000          0.3582
Zn93      Zn    0.4707231242    0.9707231242   -0.0292768758          1.4972
Zn94      Zn    0.4707231242    1.0292768758    0.0292768758          1.4936
Zn95      Zn    0.5292768758    0.9707231242    0.0292768758          1.4911
Zn96      Zn    0.5292768758    1.0292768758   -0.0292768758          1.4948
O97        O    0.5000000000    1.0000000000    0.0000000000         -2.2545
O98        O    0.4217525098    0.9784836375   -0.0215163625         -1.1608
O99        O    0.4784836375    1.0215163625    0.0782474902          -1.159
O100       O    0.5215163625    0.9217525098    0.0215163625         -1.1542
O101       O    0.4217525098    1.0215163625    0.0215163625          -1.161
O102       O    0.4784836375    0.9217525098   -0.0215163625          -1.157
O103       O    0.5215163625    0.9784836375    0.0782474902         -1.1628
O104       O    0.5782474902    1.0215163625   -0.0215163625         -1.1567
O105       O    0.4784836375    1.0782474902    0.0215163625         -1.1643
O106       O    0.5782474902    0.9784836375    0.0215163625         -1.1582
O107       O    0.5215163625    1.0782474902   -0.0215163625         -1.1629
O108       O    0.5215163625    1.0215163625   -0.0782474902          -1.162
O109       O    0.4784836375    0.9784836375   -0.0782474902         -1.1598
C110       C    0.4064456023    1.0000000000    0.0000000000          0.3581
C111       C    0.5000000000    1.0000000000    0.0935543977           0.363
C112       C    0.5000000000    0.9064456023    0.0000000000          0.3526
C113       C    0.5935543977    1.0000000000    0.0000000000          0.3563
C114       C    0.5000000000    1.0935543977    0.0000000000          0.3677
C115       C    0.5000000000    1.0000000000   -0.0935543977          0.3582
Zn116     Zn    0.4707231242    1.0292768758    0.5292768758          1.4972
Zn117     Zn    0.4707231242    0.9707231242    0.4707231242          1.4936
Zn118     Zn    0.5292768758    1.0292768758    0.4707231242          1.4911
Zn119     Zn    0.5292768758    0.9707231242    0.5292768758          1.4948
O120       O    0.5000000000    1.0000000000    0.5000000000         -2.2545
O121       O    0.4217525098    1.0215163625    0.5215163625         -1.1608
O122       O    0.4784836375    0.9784836375    0.4217525098          -1.159
O123       O    0.5215163625    1.0782474902    0.4784836375         -1.1542
O124       O    0.4217525098    0.9784836375    0.4784836375          -1.161
O125       O    0.4784836375    1.0782474902    0.5215163625          -1.157
O126       O    0.5215163625    1.0215163625    0.4217525098         -1.1628
O127       O    0.5782474902    0.9784836375    0.5215163625         -1.1567
O128       O    0.4784836375    0.9217525098    0.4784836375         -1.1643
O129       O    0.5782474902    1.0215163625    0.4784836375         -1.1582
O130       O    0.5215163625    0.9217525098    0.5215163625         -1.1629
O131       O    0.5215163625    0.9784836375    0.5782474902          -1.162
O132       O    0.4784836375    1.0215163625    0.5782474902         -1.1598
C133       C    0.4064456023    1.0000000000    0.5000000000          0.3581
C134       C    0.5000000000    1.0000000000    0.4064456023           0.363
C135       C    0.5000000000    1.0935543977    0.5000000000          0.3526
C136       C    0.5935543977    1.0000000000    0.5000000000          0.3563
C137       C    0.5000000000    0.9064456023    0.5000000000          0.3677
C138       C    0.5000000000    1.0000000000    0.5935543977          0.3582
Zn139     Zn    0.4707231242    0.5292768758   -0.0292768758          1.4972
Zn140     Zn    0.4707231242    0.4707231242    0.0292768758          1.4936
Zn141     Zn    0.5292768758    0.4707231242   -0.0292768758          1.4911
Zn142     Zn    0.5292768758    0.5292768758    0.0292768758          1.4948
O143       O    0.5000000000    0.5000000000    0.0000000000         -2.2545
O144       O    0.4217525098    0.5215163625   -0.0215163625         -1.1608
O145       O    0.4784836375    0.4217525098    0.0215163625          -1.159
O146       O    0.5215163625    0.4784836375   -0.0782474902         -1.1542
O147       O    0.4217525098    0.4784836375    0.0215163625          -1.161
O148       O    0.4784836375    0.5215163625   -0.0782474902          -1.157
O149       O    0.5215163625    0.4217525098   -0.0215163625         -1.1628
O150       O    0.5782474902    0.5215163625    0.0215163625         -1.1567
O151       O    0.4784836375    0.4784836375    0.0782474902         -1.1643
O152       O    0.5782474902    0.4784836375   -0.0215163625         -1.1582
O153       O    0.5215163625    0.5215163625    0.0782474902         -1.1629
O154       O    0.5215163625    0.5782474902    0.0215163625          -1.162
O155       O    0.4784836375    0.5782474902   -0.0215163625         -1.1598
C156       C    0.4064456023    0.5000000000    0.0000000000          0.3581
C157       C    0.5000000000    0.4064456023    0.0000000000           0.363
C158       C    0.5000000000    0.5000000000   -0.0935543977          0.3526
C159       C    0.5935543977    0.5000000000    0.0000000000          0.3563
C160       C    0.5000000000    0.5000000000    0.0935543977          0.3677
C161       C    0.5000000000    0.5935543977    0.0000000000          0.3582
Zn162     Zn    0.4707231242    0.5292768758    0.4707231242          1.4972
Zn163     Zn    0.4707231242    0.4707231242    0.5292768758          1.4936
Zn164     Zn    0.5292768758    0.4707231242    0.4707231242          1.4911
Zn165     Zn    0.5292768758    0.5292768758    0.5292768758          1.4948
O166       O    0.5000000000    0.5000000000    0.5000000000         -2.2545
O167       O    0.4217525098    0.5215163625    0.4784836375         -1.1608
O168       O    0.4784836375    0.4217525098    0.5215163625          -1.159
O169       O    0.5215163625    0.4784836375    0.4217525098         -1.1542
O170       O    0.4217525098    0.4784836375    0.5215163625          -1.161
O171       O    0.4784836375    0.5215163625    0.4217525098          -1.157
O172       O    0.5215163625    0.4217525098    0.4784836375         -1.1628
O173       O    0.5782474902    0.5215163625    0.5215163625         -1.1567
O174       O    0.4784836375    0.4784836375    0.5782474902         -1.1643
O175       O    0.5782474902    0.4784836375    0.4784836375         -1.1582
O176       O    0.5215163625    0.5215163625    0.5782474902         -1.1629
O177       O    0.5215163625    0.5782474902    0.5215163625          -1.162
O178       O    0.4784836375    0.5782474902    0.4784836375         -1.1598
C179       C    0.4064456023    0.5000000000    0.5000000000          0.3581
C180       C    0.5000000000    0.4064456023    0.5000000000           0.363
C181       C    0.5000000000    0.5000000000    0.4064456023          0.3526
C182       C    0.5935543977    0.5000000000    0.5000000000          0.3563
C183       C    0.5000000000    0.5000000000    0.5935543977          0.3677
C184       C    0.5000000000    0.5935543977    0.5000000000          0.3582
C921       C    0.5000000000    0.5000000000   -0.1337670170         -0.4132
C922       C    0.5301695408    0.5021690028   -0.1530969631         -0.4162
C923       C    0.5290482351    0.5010780436   -0.1880786358          0.5823
C924       C    0.4992079776    0.4980071801   -0.2055223365          0.5836
C925       C    0.4699600087    0.4970684235   -0.1869935958         -0.4146
C926       C    0.4692033067    0.4981238108   -0.1518674767         -0.4131
C927       C    0.4985525865    0.4942814087   -0.2397737645         -0.4156
H928       H    0.5532375996    0.5020640203   -0.2030144617          0.5807
C929       C    0.5674480169    0.5066161709   -0.1387746522          0.5812
C930       C    0.4309372811    0.4949511196   -0.1392396523         -0.4098
H931       H    0.4455907122    0.4942870235   -0.2014810541         -0.4134
C932       C    0.4990249619    0.4886118386   -0.2702406314         -0.4127
C933       C    0.5041229809    0.4776071618   -0.3072003259         -0.4056
H934       H    0.5864222030    0.5131466344   -0.1591227488          0.5743
H935       H    0.5688288646    0.5277563763   -0.1196467411          0.5641
H936       H    0.5767573292    0.4825728846   -0.1266585103         -0.3969
O937       O    0.4806725069    0.4922224459   -0.3337438371          0.5796
C938       C    0.5370921258    0.4864148044   -0.3593446576          0.5834
C939       C    0.5406812362    0.4876274893   -0.3198089930         -0.4149
H940       H    0.5471930799    0.5141739330   -0.3115369052          0.5626
H941       H    0.5394185754    0.4594091119   -0.3682928826         -0.3936
H942       H    0.5567864285    0.5023802964   -0.3724065922          0.5688
H943       H    0.5605696940    0.4695614886   -0.3103551367         -0.3983
H944       H    0.5006134709    0.5283945912   -0.3689839999          0.5458
C945       C    0.5000000000    0.5000000000   -0.3662329830          0.5708
H946       H    0.5013367957    0.4491970811   -0.3083627038         -0.3809
C947       C    0.4170108507    0.5095903867   -0.1045278460          0.5796
H948       H    0.3888746223    0.5138087970   -0.1067950544          0.5756
H949       H    0.4289592965    0.5345802313   -0.0977703986          0.5584
H950       H    0.4201310460    0.4904727614   -0.0835915026         -0.4022
H951       H    0.4230294730    0.4676486709   -0.1412963764         -0.3862
H952       H    0.4147699324    0.5088454887   -0.1582544490          0.5766
C889       C    0.5000000000    0.5000000000    0.3662329830         -0.4132
C890       C    0.4698304592    0.4978309972    0.3469030369         -0.4162
C891       C    0.4709517649    0.4989219564    0.3119213642          0.5823
C892       C    0.5007920224    0.5019928199    0.2944776635          0.5836
C893       C    0.5300399913    0.5029315765    0.3130064042         -0.4146
C894       C    0.5307966933    0.5018761892    0.3481325233         -0.4131
C895       C    0.5014474135    0.5057185913    0.2602262355         -0.4156
H896       H    0.4467624004    0.4979359797    0.2969855383          0.5807
C897       C    0.4325519831    0.4933838291    0.3612253478          0.5812
C898       C    0.5690627189    0.5050488804    0.3607603477         -0.4098
H899       H    0.5544092878    0.5057129765    0.2985189459         -0.4134
C900       C    0.5009750381    0.5113881614    0.2297593686         -0.4127
C901       C    0.4958770191    0.5223928382    0.1927996741         -0.4056
H902       H    0.4135777970    0.4868533656    0.3408772512          0.5743
H903       H    0.4311711354    0.4722436237    0.3803532589          0.5641
H904       H    0.4232426708    0.5174271154    0.3733414897         -0.3969
O905       O    0.5193274931    0.5077775541    0.1662561629          0.5796
C906       C    0.4629078742    0.5135851956    0.1406553424          0.5834
C907       C    0.4593187638    0.5123725107    0.1801910070         -0.4149
H908       H    0.4528069201    0.4858260670    0.1884630948          0.5626
H909       H    0.4605814246    0.5405908881    0.1317071174         -0.3936
H910       H    0.4432135715    0.4976197036    0.1275934078          0.5688
H911       H    0.4394303060    0.5304385114    0.1896448633         -0.3983
H912       H    0.4993865291    0.4716054088    0.1310160001          0.5458
C913       C    0.5000000000    0.5000000000    0.1337670170          0.5708
H914       H    0.4986632043    0.5508029189    0.1916372962         -0.3809
C915       C    0.5829891493    0.4904096133    0.3954721540          0.5796
H916       H    0.6111253777    0.4861912030    0.3932049456          0.5756
H917       H    0.5710407035    0.4654197687    0.4022296014          0.5584
H918       H    0.5798689540    0.5095272386    0.4164084974         -0.4022
H919       H    0.5769705270    0.5323513291    0.3587036236         -0.3862
H920       H    0.5852300676    0.4911545113    0.3417455510          0.5766
C857       C    0.5000000000    0.8662329830    0.5000000000         -0.4132
C858       C    0.4924687287    0.8469030369    0.5292948070         -0.4162
C859       C    0.4917906757    0.8119213642    0.5278849267          0.5823
C860       C    0.4983621946    0.7944776635    0.4986157226          0.5836
C861       C    0.5067670601    0.8130064042    0.4705856818         -0.4146
C862       C    0.5080082130    0.8481325233    0.4702036088         -0.4131
C863       C    0.4950378556    0.7602262355    0.4968102641         -0.4156
H864       H    0.4850381982    0.7969855383    0.5511336159          0.5807
C865       C    0.4848383111    0.8612253478    0.5660540074          0.5812
C866       C    0.5171608780    0.8607603477    0.4329130818         -0.4098
H867       H    0.5118743740    0.7985189459    0.4465958060         -0.4134
C868       C    0.4895120853    0.7297593686    0.4954563709         -0.4127
C869       C    0.4774577674    0.6927996741    0.4967928323         -0.4056
H870       H    0.4850002600    0.8408772512    0.5861199104          0.5743
H871       H    0.5044437419    0.8803532589    0.5740815914          0.5641
H872       H    0.4590829849    0.8733414897    0.5672397934         -0.3969
O873       O    0.4987678921    0.6662561629    0.4792027827          0.5796
C874       C    0.4753312683    0.6406553424    0.5308518558          0.5834
C875       C    0.4753404723    0.6801910070    0.5346402900         -0.4149
H876       H    0.4984412511    0.6884630948    0.5492509642          0.5626
H877       H    0.4489862541    0.6317071174    0.5244753347         -0.3936
H878       H    0.4842102662    0.6275934078    0.5545989796          0.5688
H879       H    0.4518905246    0.6896448633    0.5477563524         -0.3983
H880       H    0.5267276083    0.6310160001    0.5096054210          0.5458
C881       C    0.5000000000    0.6337670170    0.5000000000          0.5708
H882       H    0.4514059576    0.6916372962    0.4851224117         -0.3809
C883       C    0.5354670174    0.8954721540    0.4243609552          0.5796
H884       H    0.5484083844    0.8932049456    0.3990239595          0.5756
H885       H    0.5553641509    0.9022296014    0.4436317044          0.5584
H886       H    0.5163488888    0.9164084974    0.4212438452         -0.4022
H887       H    0.4937869219    0.8587036236    0.4167385552         -0.3862
H888       H    0.5354728962    0.8417455510    0.4219994826          0.5766
C825       C    0.5000000000    1.1337670170    0.5000000000         -0.4132
C826       C    0.4698304592    1.1530969631    0.4978309972         -0.4162
C827       C    0.4709517649    1.1880786358    0.4989219564          0.5823
C828       C    0.5007920224    1.2055223365    0.5019928199          0.5836
C829       C    0.5300399913    1.1869935958    0.5029315765         -0.4146
C830       C    0.5307966933    1.1518674767    0.5018761892         -0.4131
C831       C    0.5014474135    1.2397737645    0.5057185913         -0.4156
H832       H    0.4467624004    1.2030144617    0.4979359797          0.5807
C833       C    0.4325519831    1.1387746522    0.4933838291          0.5812
C834       C    0.5690627189    1.1392396523    0.5050488804         -0.4098
H835       H    0.5544092878    1.2014810541    0.5057129765         -0.4134
C836       C    0.5009750381    1.2702406314    0.5113881614         -0.4127
C837       C    0.4958770191    1.3072003259    0.5223928382         -0.4056
H838       H    0.4135777970    1.1591227488    0.4868533656          0.5743
H839       H    0.4311711354    1.1196467411    0.4722436237          0.5641
H840       H    0.4232426708    1.1266585103    0.5174271154         -0.3969
O841       O    0.5193274931    1.3337438371    0.5077775541          0.5796
C842       C    0.4629078742    1.3593446576    0.5135851956          0.5834
C843       C    0.4593187638    1.3198089930    0.5123725107         -0.4149
H844       H    0.4528069201    1.3115369052    0.4858260670          0.5626
H845       H    0.4605814246    1.3682928826    0.5405908881         -0.3936
H846       H    0.4432135715    1.3724065922    0.4976197036          0.5688
H847       H    0.4394303060    1.3103551367    0.5304385114         -0.3983
H848       H    0.4993865291    1.3689839999    0.4716054088          0.5458
C849       C    0.5000000000    1.3662329830    0.5000000000          0.5708
H850       H    0.4986632043    1.3083627038    0.5508029189         -0.3809
C851       C    0.5829891493    1.1045278460    0.4904096133          0.5796
H852       H    0.6111253777    1.1067950544    0.4861912030          0.5756
H853       H    0.5710407035    1.0977703986    0.4654197687          0.5584
H854       H    0.5798689540    1.0835915026    0.5095272386         -0.4022
H855       H    0.5769705270    1.1412963764    0.5323513291         -0.3862
H856       H    0.5852300676    1.1582544490    0.4911545113          0.5766
C793       C    0.5000000000    0.8662329830    0.0000000000         -0.4132
C794       C    0.4967931540    0.8469030369    0.0300769331         -0.4162
C795       C    0.4959179599    0.8119213642    0.0287801857          0.5823
C796       C    0.4981788930    0.7944776635   -0.0011323426          0.5836
C797       C    0.5024333828    0.8130064042   -0.0300844456         -0.4146
C798       C    0.5036060722    0.8481325233   -0.0306423342         -0.4131
C799       C    0.4946280217    0.7602262355   -0.0024370354         -0.4156
H800       H    0.4926055809    0.7969855383    0.0527619631          0.5807
C801       C    0.4945698295    0.8612253478    0.0675538448          0.5812
C802       C    0.5072585866    0.8607603477   -0.0688655447         -0.4098
H803       H    0.5040105609    0.7985189459   -0.0545611959         -0.4134
C804       C    0.4889643873    0.7297593686   -0.0029759323         -0.4127
C805       C    0.4772309530    0.6927996741    0.0000931440         -0.4056
H806       H    0.4976377010    0.8408772512    0.0873844993          0.5743
H807       H    0.5151315687    0.8803532589    0.0726557958          0.5641
H808       H    0.4692581579    0.8733414897    0.0724591684         -0.3969
O809       O    0.4957672938    0.6662561629   -0.0203991798          0.5796
C810       C    0.4800621902    0.6406553424    0.0341008369          0.5834
C811       C    0.4806202568    0.6801910070    0.0378479531         -0.4149
H812       H    0.5055943700    0.6884630948    0.0489570239          0.5626
H813       H    0.4530712450    0.6317071174    0.0316091164         -0.3936
H814       H    0.4922885325    0.6275934078    0.0563107231          0.5688
H815       H    0.4593183783    0.6896448633    0.0542235785         -0.3983
H816       H    0.5278373822    0.6310160001    0.0056311021          0.5458
C817       C    0.5000000000    0.6337670170    0.0000000000          0.5708
H818       H    0.4497630098    0.6916372962   -0.0076790892         -0.3809
C819       C    0.5241322792    0.8954721540   -0.0799800445          0.5796
H820       H    0.5332656242    0.8932049456   -0.1069248834          0.5756
H821       H    0.5466118232    0.9022296014   -0.0637958611          0.5584
H822       H    0.5047642469    0.9164084974   -0.0802939602         -0.4022
H823       H    0.4817875707    0.8587036236   -0.0814823781         -0.3862
H824       H    0.5237959088    0.8417455510   -0.0823174454          0.5766
C761       C    0.5000000000    1.1337670170    0.0000000000         -0.4132
C762       C    0.4904293182    1.1530969631    0.0286933410         -0.4162
C763       C    0.4917639212    1.1880786358    0.0278770362          0.5823
C764       C    0.5021268656    1.2055223365   -0.0002739949          0.5836
C765       C    0.5102774426    1.1869935958   -0.0283790309         -0.4146
C766       C    0.5094422506    1.1518674767   -0.0293734626         -0.4131
C767       C    0.5058989077    1.2397737645    0.0000134221         -0.4156
H768       H    0.4848199745    1.2030144617    0.0510692570          0.5807
C769       C    0.4768914034    1.1387746522    0.0637102933          0.5812
C770       C    0.5219898562    1.1392396523   -0.0656627486         -0.4098
H771       H    0.5190054656    1.2014810541   -0.0513010816         -0.4134
C772       C    0.5112750300    1.2702406314    0.0018747317         -0.4127
C773       C    0.5206749809    1.3072003259    0.0095385188         -0.4056
H774       H    0.4658667198    1.1591227488    0.0804770176          0.5743
H775       H    0.4560674531    1.1196467411    0.0598143825          0.5641
H776       H    0.4978814499    1.1266585103    0.0786822959         -0.3969
O777       O    0.5123204206    1.3337438371   -0.0168002850          0.5796
C778       C    0.5039792174    1.3593446576    0.0393007527          0.5834
C779       C    0.5019157133    1.3198089930    0.0424779006         -0.4149
H780       H    0.4745835241    1.3115369052    0.0422148069          0.5626
H781       H    0.5295682243    1.3682928826    0.0482406923         -0.3936
H782       H    0.4836349457    1.3724065922    0.0544293052          0.5688
H783       H    0.5144954292    1.3103551367    0.0662198863         -0.3983
H784       H    0.4723374836    1.3689839999   -0.0064353976          0.5458
C785       C    0.5000000000    1.3662329830    0.0000000000          0.5708
H786       H    0.5488904127    1.3083627038    0.0138726759         -0.3809
C787       C    0.5112541513    1.1045278460   -0.0827799402          0.5796
H788       H    0.5141328712    1.1067950544   -0.1110846272          0.5756
H789       H    0.4840841398    1.0977703986   -0.0773903052          0.5584
H790       H    0.5290041442    1.0835915026   -0.0750238476         -0.4022
H791       H    0.5504001200    1.1412963764   -0.0665649940         -0.3862
H792       H    0.5125306536    1.1582544490   -0.0847666787          0.5766
C729       C    0.5000000000    1.0000000000   -0.1337670170         -0.4132
C730       C    0.4968696511    1.0300849910   -0.1530969631         -0.4162
C731       C    0.4979958262    1.0289990591   -0.1880786358          0.5823
C732       C    0.5020170722    0.9992719544   -0.2055223365          0.5836
C733       C    0.5038884017    0.9700688197   -0.1869935958         -0.4146
C734       C    0.5028576914    0.9692788346   -0.1518674767         -0.4131
C735       C    0.5057618552    0.9987357541   -0.2397737645         -0.4156
H736       H    0.4962386772    1.0531446577   -0.2030144617          0.5807
C737       C    0.4912355115    1.0672026223   -0.1387746522          0.5812
C738       C    0.5072495070    0.9311334989   -0.1392396523         -0.4098
H739       H    0.5074458003    0.9458006573   -0.2014810541         -0.4134
C740       C    0.5114134702    0.9993887562   -0.2702406314         -0.4127
C741       C    0.5222499119    1.0048352449   -0.3072003259         -0.4056
H742       H    0.4841030690    1.0859588201   -0.1591227488          0.5743
H743       H    0.4700620150    1.0679083654   -0.1196467411          0.5641
H744       H    0.5149695804    1.0772742105   -0.1266585103         -0.3969
O745       O    0.5083901693    0.9809304589   -0.3337438371          0.5796
C746       C    0.5123949909    1.0375066332   -0.3593446576          0.5834
C747       C    0.5110684256    1.0410552305   -0.3198089930         -0.4149
H748       H    0.4843277567    1.0467168916   -0.3115369052          0.5626
H749       H    0.5393127211    1.0406934177   -0.3682928826         -0.3936
H750       H    0.4958093495    1.0566815906   -0.3724065922          0.5688
H751       H    0.5284907618    1.0615098960   -0.3103551367         -0.3983
H752       H    0.4716002904    0.9997073319   -0.3689839999          0.5458
C753       C    0.5000000000    1.0000000000   -0.3662329830          0.5708
H754       H    0.5507344157    1.0029567987   -0.3083627038         -0.3809
C755       C    0.4930619633    0.9167471438   -0.1045278460          0.5796
H756       H    0.4897432847    0.8884906630   -0.1067950544          0.5756
H757       H    0.4677036660    0.9278922975   -0.0977703986          0.5584
H758       H    0.5120703196    0.9204756297   -0.0835915026         -0.4022
H759       H    0.5347903293    0.9241007015   -0.1412963764         -0.3862
H760       H    0.4938779706    0.9145311294   -0.1582544490          0.5766
C697       C    0.5000000000    1.0000000000    0.1337670170         -0.4132
C698       C    0.5301695408    0.9978309972    0.1530969631         -0.4162
C699       C    0.5290482351    0.9989219564    0.1880786358          0.5823
C700       C    0.4992079776    1.0019928199    0.2055223365          0.5836
C701       C    0.4699600087    1.0029315765    0.1869935958         -0.4146
C702       C    0.4692033067    1.0018761892    0.1518674767         -0.4131
C703       C    0.4985525865    1.0057185913    0.2397737645         -0.4156
H704       H    0.5532375996    0.9979359797    0.2030144617          0.5807
C705       C    0.5674480169    0.9933838291    0.1387746522          0.5812
C706       C    0.4309372811    1.0050488804    0.1392396523         -0.4098
H707       H    0.4455907122    1.0057129765    0.2014810541         -0.4134
C708       C    0.4990249619    1.0113881614    0.2702406314         -0.4127
C709       C    0.5041229809    1.0223928382    0.3072003259         -0.4056
H710       H    0.5864222030    0.9868533656    0.1591227488          0.5743
H711       H    0.5688288646    0.9722436237    0.1196467411          0.5641
H712       H    0.5767573292    1.0174271154    0.1266585103         -0.3969
O713       O    0.4806725069    1.0077775541    0.3337438371          0.5796
C714       C    0.5370921258    1.0135851956    0.3593446576          0.5834
C715       C    0.5406812362    1.0123725107    0.3198089930         -0.4149
H716       H    0.5471930799    0.9858260670    0.3115369052          0.5626
H717       H    0.5394185754    1.0405908881    0.3682928826         -0.3936
H718       H    0.5567864285    0.9976197036    0.3724065922          0.5688
H719       H    0.5605696940    1.0304385114    0.3103551367         -0.3983
H720       H    0.5006134709    0.9716054088    0.3689839999          0.5458
C721       C    0.5000000000    1.0000000000    0.3662329830          0.5708
H722       H    0.5013367957    1.0508029189    0.3083627038         -0.3809
C723       C    0.4170108507    0.9904096133    0.1045278460          0.5796
H724       H    0.3888746223    0.9861912030    0.1067950544          0.5756
H725       H    0.4289592965    0.9654197687    0.0977703986          0.5584
H726       H    0.4201310460    1.0095272386    0.0835915026         -0.4022
H727       H    0.4230294730    1.0323513291    0.1412963764         -0.3862
H728       H    0.4147699324    0.9911545113    0.1582544490          0.5766
C665       C    0.8662329830    0.5000000000    0.5000000000         -0.4132
C666       C    0.8469030369    0.5302465583    0.4997731090         -0.4162
C667       C    0.8119213642    0.5290423823    0.4987743703          0.5823
C668       C    0.7944776635    0.4990526563    0.4980761574          0.5836
C669       C    0.8130064042    0.4698221973    0.4994564532         -0.4146
C670       C    0.8481325233    0.4691514462    0.5005684484         -0.4131
C671       C    0.7602262355    0.4981042848    0.4944139856         -0.4156
H672       H    0.7969855383    0.5532338620    0.4978417298          0.5807
C673       C    0.8612253478    0.5677601319    0.5012542827          0.5812
C674       C    0.8607603477    0.4307543483    0.5004359519         -0.4098
H675       H    0.7985189459    0.4453091738    0.4986135572         -0.4134
C676       C    0.7297593686    0.4981262117    0.4887248132         -0.4127
C677       C    0.6927996741    0.5023367767    0.4773509901         -0.4056
H678       H    0.8408772512    0.5871918705    0.5062616998          0.5743
H679       H    0.8803532589    0.5708107057    0.5222187532          0.5641
H680       H    0.8733414897    0.5751362566    0.4765493095         -0.3969
O681       O    0.6662561629    0.4801173086    0.4937773864          0.5796
C682       C    0.6406553424    0.5358998516    0.4835201946          0.5834
C683       C    0.6801910070    0.5395737218    0.4844448548         -0.4149
H684       H    0.6884630948    0.5481672907    0.5103922700          0.5626
H685       H    0.6317071174    0.5360804536    0.4564150811         -0.3936
H686       H    0.6275934078    0.5567965917    0.4978759860          0.5688
H687       H    0.6896448633    0.5579691025    0.4648606493         -0.3983
H688       H    0.6310160001    0.5028600711    0.5282568426          0.5458
C689       C    0.6337670170    0.5000000000    0.5000000000          0.5708
H690       H    0.6916372962    0.4973095878    0.4492507608         -0.3809
C691       C    0.8954721540    0.4180309142    0.5161320606          0.5796
H692       H    0.8932049456    0.3903170930    0.5225652910          0.5756
H693       H    0.9022296014    0.4319207475    0.5400972484          0.5584
H694       H    0.9164084974    0.4196274137    0.4968273875         -0.4022
H695       H    0.8587036236    0.4207093319    0.4738454502         -0.3862
H696       H    0.8417455510    0.4157380457    0.5155669570          0.5766
C633       C    1.1337670170    0.5000000000    0.5000000000         -0.4132
C634       C    1.1530969631    0.5302465583    0.5002268910         -0.4162
C635       C    1.1880786358    0.5290423823    0.5012256297          0.5823
C636       C    1.2055223365    0.4990526563    0.5019238426          0.5836
C637       C    1.1869935958    0.4698221973    0.5005435468         -0.4146
C638       C    1.1518674767    0.4691514462    0.4994315516         -0.4131
C639       C    1.2397737645    0.4981042848    0.5055860144         -0.4156
H640       H    1.2030144617    0.5532338620    0.5021582702          0.5807
C641       C    1.1387746522    0.5677601319    0.4987457173          0.5812
C642       C    1.1392396523    0.4307543483    0.4995640481         -0.4098
H643       H    1.2014810541    0.4453091738    0.5013864428         -0.4134
C644       C    1.2702406314    0.4981262117    0.5112751868         -0.4127
C645       C    1.3072003259    0.5023367767    0.5226490099         -0.4056
H646       H    1.1591227488    0.5871918705    0.4937383002          0.5743
H647       H    1.1196467411    0.5708107057    0.4777812468          0.5641
H648       H    1.1266585103    0.5751362566    0.5234506905         -0.3969
O649       O    1.3337438371    0.4801173086    0.5062226136          0.5796
C650       C    1.3593446576    0.5358998516    0.5164798054          0.5834
C651       C    1.3198089930    0.5395737218    0.5155551452         -0.4149
H652       H    1.3115369052    0.5481672907    0.4896077300          0.5626
H653       H    1.3682928826    0.5360804536    0.5435849189         -0.3936
H654       H    1.3724065922    0.5567965917    0.5021240140          0.5688
H655       H    1.3103551367    0.5579691025    0.5351393507         -0.3983
H656       H    1.3689839999    0.5028600711    0.4717431574          0.5458
C657       C    1.3662329830    0.5000000000    0.5000000000          0.5708
H658       H    1.3083627038    0.4973095878    0.5507492392         -0.3809
C659       C    1.1045278460    0.4180309142    0.4838679394          0.5796
H660       H    1.1067950544    0.3903170930    0.4774347090          0.5756
H661       H    1.0977703986    0.4319207475    0.4599027516          0.5584
H662       H    1.0835915026    0.4196274137    0.5031726125         -0.4022
H663       H    1.1412963764    0.4207093319    0.5261545498         -0.3862
H664       H    1.1582544490    0.4157380457    0.4844330430          0.5766
C601       C    0.6337670170    0.5000000000    0.0000000000         -0.4132
C602       C    0.6530969631    0.5299204888   -0.0044351006         -0.4162
C603       C    0.6880786358    0.5288845349   -0.0032627875          0.5823
C604       C    0.7055223365    0.4993603190    0.0020468119          0.5836
C605       C    0.6869935958    0.4702661270    0.0051857512         -0.4146
C606       C    0.6518674767    0.4694320864    0.0041903536         -0.4131
C607       C    0.7397737645    0.4989874007    0.0058113626         -0.4156
H608       H    0.7030144617    0.5529309341   -0.0060678173          0.5807
C609       C    0.6387746522    0.5667581383   -0.0116773147          0.5812
C610       C    0.6392396523    0.4315137035    0.0102360892         -0.4098
H611       H    0.7014810541    0.4461755316    0.0097946567         -0.4134
C612       C    0.7702406314    0.4998854456    0.0114292518         -0.4127
C613       C    0.8072003259    0.5057978163    0.0220187080         -0.4056
H614       H    0.6591227488    0.5851865814   -0.0196182953          0.5743
H615       H    0.6196467411    0.5665428617   -0.0328614758          0.5641
H616       H    0.6266585103    0.5778518608    0.0115965383         -0.3969
O617       O    0.8337438371    0.4813131795    0.0092111389          0.5796
C618       C    0.8593446576    0.5380099595    0.0107529675          0.5834
C619       C    0.8198089930    0.5414975408    0.0092734084         -0.4149
H620       H    0.8115369052    0.5459915088   -0.0176880833          0.5626
H621       H    0.8682928826    0.5423637705    0.0375067359         -0.3936
H622       H    0.8724065922    0.5564458624   -0.0066504798          0.5688
H623       H    0.8103551367    0.5626901738    0.0257901709         -0.3983
H624       H    0.8689839999    0.4984731526   -0.0283601463          0.5458
C625       C    0.8662329830    0.5000000000    0.0000000000          0.5708
H626       H    0.8083627038    0.5051592872    0.0505579405         -0.3809
C627       C    0.6045278460    0.4165242528   -0.0033127106          0.5796
H628       H    0.6067950544    0.3881502249   -0.0054000225          0.5756
H629       H    0.5977703986    0.4265566185   -0.0291314893          0.5584
H630       H    0.5835915026    0.4210754548    0.0155156132         -0.4022
H631       H    0.6412963764    0.4256846756    0.0380565774         -0.3862
H632       H    0.6582544490    0.4143458024   -0.0024011507          0.5766
C569       C    1.1337670170    0.5000000000    0.0000000000         -0.4132
C570       C    1.1530969631    0.5140716268   -0.0267748966         -0.4162
C571       C    1.1880786358    0.5144069746   -0.0252468062          0.5823
C572       C    1.2055223365    0.5012752260    0.0017240734          0.5836
C573       C    1.1869935958    0.4866445602    0.0270670916         -0.4146
C574       C    1.1518674767    0.4853487907    0.0271532405         -0.4131
C575       C    1.2397737645    0.5040947662    0.0042461962         -0.4156
H576       H    1.2030144617    0.5263291295   -0.0463171580          0.5807
C577       C    1.1387746522    0.5299577580   -0.0607909651          0.5812
C578       C    1.1392396523    0.4678589896    0.0613360072         -0.4098
H579       H    1.2014810541    0.4761528071    0.0492373850         -0.4134
C580       C    1.2702406314    0.5091605675    0.0068355631         -0.4127
C581       C    1.3072003259    0.5211988576    0.0083094290         -0.4056
H582       H    1.1591227488    0.5344185662   -0.0803554197          0.5743
H583       H    1.1196467411    0.5127263326   -0.0731154531          0.5641
H584       H    1.1266585103    0.5552945363   -0.0560170170         -0.3969
O585       O    1.3337438371    0.4964122986    0.0205224447          0.5796
C586       C    1.3593446576    0.5311073596   -0.0243457493          0.5834
C587       C    1.3198089930    0.5319703564   -0.0280345912         -0.4149
H588       H    1.3115369052    0.5128526026   -0.0475699251          0.5626
H589       H    1.3682928826    0.5552774381   -0.0120768008         -0.3936
H590       H    1.3724065922    0.5279324287   -0.0494989262          0.5688
H591       H    1.3103551367    0.5578095471   -0.0354012299         -0.3983
H592       H    1.3689839999    0.4762007693   -0.0154992186          0.5458
C593       C    1.3662329830    0.5000000000    0.0000000000          0.5708
H594       H    1.3083627038    0.5438651489    0.0256626636         -0.3809
C595       C    1.1045278460    0.4480759528    0.0654451506          0.5796
H596       H    1.1067950544    0.4296504168    0.0871232953          0.5756
H597       H    1.0977703986    0.4331484062    0.0421122115          0.5584
H598       H    1.0835915026    0.4659633635    0.0728788410         -0.4022
H599       H    1.1412963764    0.4868826471    0.0824560828         -0.3862
H600       H    1.1582544490    0.4475267104    0.0677418701          0.5766
C537       C    1.0000000000    0.5000000000   -0.3662329830         -0.4132
C538       C    0.9698304592    0.5021690028   -0.3469030369         -0.4162
C539       C    0.9709517649    0.5010780436   -0.3119213642          0.5823
C540       C    1.0007920224    0.4980071801   -0.2944776635          0.5836
C541       C    1.0300399913    0.4970684235   -0.3130064042         -0.4146
C542       C    1.0307966933    0.4981238108   -0.3481325233         -0.4131
C543       C    1.0014474135    0.4942814087   -0.2602262355         -0.4156
H544       H    0.9467624004    0.5020640203   -0.2969855383          0.5807
C545       C    0.9325519831    0.5066161709   -0.3612253478          0.5812
C546       C    1.0690627189    0.4949511196   -0.3607603477         -0.4098
H547       H    1.0544092878    0.4942870235   -0.2985189459         -0.4134
C548       C    1.0009750381    0.4886118386   -0.2297593686         -0.4127
C549       C    0.9958770191    0.4776071618   -0.1927996741         -0.4056
H550       H    0.9135777970    0.5131466344   -0.3408772512          0.5743
H551       H    0.9311711354    0.5277563763   -0.3803532589          0.5641
H552       H    0.9232426708    0.4825728846   -0.3733414897         -0.3969
O553       O    1.0193274931    0.4922224459   -0.1662561629          0.5796
C554       C    0.9629078742    0.4864148044   -0.1406553424          0.5834
C555       C    0.9593187638    0.4876274893   -0.1801910070         -0.4149
H556       H    0.9528069201    0.5141739330   -0.1884630948          0.5626
H557       H    0.9605814246    0.4594091119   -0.1317071174         -0.3936
H558       H    0.9432135715    0.5023802964   -0.1275934078          0.5688
H559       H    0.9394303060    0.4695614886   -0.1896448633         -0.3983
H560       H    0.9993865291    0.5283945912   -0.1310160001          0.5458
C561       C    1.0000000000    0.5000000000   -0.1337670170          0.5708
H562       H    0.9986632043    0.4491970811   -0.1916372962         -0.3809
C563       C    1.0829891493    0.5095903867   -0.3954721540          0.5796
H564       H    1.1111253777    0.5138087970   -0.3932049456          0.5756
H565       H    1.0710407035    0.5345802313   -0.4022296014          0.5584
H566       H    1.0798689540    0.4904727614   -0.4164084974         -0.4022
H567       H    1.0769705270    0.4676486709   -0.3587036236         -0.3862
H568       H    1.0852300676    0.5088454887   -0.3417455510          0.5766
C505       C    1.0000000000    0.5000000000    0.1337670170         -0.4132
C506       C    0.9698096260    0.5018566323    0.1530969631         -0.4162
C507       C    0.9709421631    0.5007773370    0.1880786358          0.5823
C508       C    1.0008126056    0.4980154843    0.2055223365          0.5836
C509       C    1.0300687241    0.4973794940    0.1869935958         -0.4146
C510       C    1.0308144623    0.4984426566    0.1518674767         -0.4131
C511       C    1.0015065234    0.4942966957    0.2397737645         -0.4156
H512       H    0.9467438894    0.5015129012    0.2030144617          0.5807
C513       C    0.9324871185    0.5059177304    0.1387746522          0.5812
C514       C    1.0691112755    0.4956661883    0.1392396523         -0.4098
H515       H    1.0544655027    0.4948504649    0.2014810541         -0.4134
C516       C    1.0010928532    0.4886225402    0.2702406314         -0.4127
C517       C    0.9961090055    0.4775656884    0.3072003259         -0.4056
H518       H    0.9134463585    0.5122514616    0.1591227488          0.5743
H519       H    0.9308875439    0.5270425117    0.1196467411          0.5641
H520       H    0.9234271526    0.4817793806    0.1266585103         -0.3969
O521       O    1.0194069555    0.4924229018    0.3337438371          0.5796
C522       C    0.9630504676    0.4860316290    0.3593446576          0.5834
C523       C    0.9594489982    0.4872071017    0.3198089930         -0.4149
H524       H    0.9526627478    0.5136847260    0.3115369052          0.5626
H525       H    0.9610036511    0.4590033043    0.3682928826         -0.3936
H526       H    0.9431919771    0.5017924300    0.3724065922          0.5688
H527       H    0.9397485885    0.4689362234    0.3103551367         -0.3983
H528       H    0.9990926783    0.5283867209    0.3689839999          0.5458
C529       C    1.0000000000    0.5000000000    0.3662329830          0.5708
H530       H    0.9991890855    0.4491859664    0.3083627038         -0.3809
C531       C    1.0828854438    0.5104488097    0.1045278460          0.5796
H532       H    1.1109765046    0.5149582036    0.1067950544          0.5756
H533       H    1.0706789934    0.5353136495    0.0977703986          0.5584
H534       H    1.0799632828    0.4912999144    0.0835915026         -0.4022
H535       H    1.0773012402    0.4684470477    0.1412963764         -0.3862
H536       H    1.0851339517    0.5097271451    0.1582544490          0.5766
C473       C    1.0000000000   -0.3662329830    0.5000000000         -0.4132
C474       C    0.9698304592   -0.3469030369    0.4978309972         -0.4162
C475       C    0.9709517649   -0.3119213642    0.4989219564          0.5823
C476       C    1.0007920224   -0.2944776635    0.5019928199          0.5836
C477       C    1.0300399913   -0.3130064042    0.5029315765         -0.4146
C478       C    1.0307966933   -0.3481325233    0.5018761892         -0.4131
C479       C    1.0014474135   -0.2602262355    0.5057185913         -0.4156
H480       H    0.9467624004   -0.2969855383    0.4979359797          0.5807
C481       C    0.9325519831   -0.3612253478    0.4933838291          0.5812
C482       C    1.0690627189   -0.3607603477    0.5050488804         -0.4098
H483       H    1.0544092878   -0.2985189459    0.5057129765         -0.4134
C484       C    1.0009750381   -0.2297593686    0.5113881614         -0.4127
C485       C    0.9958770191   -0.1927996741    0.5223928382         -0.4056
H486       H    0.9135777970   -0.3408772512    0.4868533656          0.5743
H487       H    0.9311711354   -0.3803532589    0.4722436237          0.5641
H488       H    0.9232426708   -0.3733414897    0.5174271154         -0.3969
O489       O    1.0193274931   -0.1662561629    0.5077775541          0.5796
C490       C    0.9629078742   -0.1406553424    0.5135851956          0.5834
C491       C    0.9593187638   -0.1801910070    0.5123725107         -0.4149
H492       H    0.9528069201   -0.1884630948    0.4858260670          0.5626
H493       H    0.9605814246   -0.1317071174    0.5405908881         -0.3936
H494       H    0.9432135715   -0.1275934078    0.4976197036          0.5688
H495       H    0.9394303060   -0.1896448633    0.5304385114         -0.3983
H496       H    0.9993865291   -0.1310160001    0.4716054088          0.5458
C497       C    1.0000000000   -0.1337670170    0.5000000000          0.5708
H498       H    0.9986632043   -0.1916372962    0.5508029189         -0.3809
C499       C    1.0829891493   -0.3954721540    0.4904096133          0.5796
H500       H    1.1111253777   -0.3932049456    0.4861912030          0.5756
H501       H    1.0710407035   -0.4022296014    0.4654197687          0.5584
H502       H    1.0798689540   -0.4164084974    0.5095272386         -0.4022
H503       H    1.0769705270   -0.3587036236    0.5323513291         -0.3862
H504       H    1.0852300676   -0.3417455510    0.4911545113          0.5766
C441       C    1.0000000000    0.1337670170    0.5000000000         -0.4132
C442       C    1.0300610037    0.1530969631    0.4966471173         -0.4162
C443       C    1.0287600211    0.1880786358    0.4957782315          0.5823
C444       C    0.9988588262    0.2055223365    0.4981844139          0.5836
C445       C    0.9699277274    0.1869935958    0.5025794651         -0.4146
C446       C    0.9693755407    0.1518674767    0.5037548502         -0.4131
C447       C    0.9975369033    0.2397737645    0.4946399210         -0.4156
H448       H    1.0527254284    0.2030144617    0.4923494193          0.5807
C449       C    1.0675266754    0.1387746522    0.4942418051          0.5812
C450       C    0.9311705202    0.1392396523    0.5075929599         -0.4098
H451       H    0.9454589257    0.2014810541    0.5042755007         -0.4134
C452       C    0.9969705062    0.2702406314    0.4889789707         -0.4127
C453       C    0.9999825605    0.3072003259    0.4772307692         -0.4056
H454       H    1.0873719957    0.1591227488    0.4972133290          0.5743
H455       H    1.0727284283    0.1196467411    0.5147785232          0.5641
H456       H    1.0723090101    0.1266585103    0.4689066084         -0.3969
O457       O    0.9795805038    0.3337438371    0.4958664163          0.5796
C458       C    1.0340036028    0.3593446576    0.4798968080          0.5834
C459       C    1.0377533852    0.3198089930    0.4804366694         -0.4149
H460       H    1.0489836167    0.3115369052    0.5053565347          0.5626
H461       H    1.0313808250    0.3682928826    0.4529182827         -0.3936
H462       H    1.0562726067    0.3724065922    0.4920151395          0.5688
H463       H    1.0540253608    0.3103551367    0.4590555107         -0.3983
H464       H    1.0057662333    0.3689839999    0.5278097053          0.5458
C465       C    1.0000000000    0.3662329830    0.5000000000          0.5708
H466       H    0.9920770157    0.3083627038    0.4498008973         -0.3809
C467       C    0.9201381019    0.1045278460    0.5245204332          0.5796
H468       H    0.8932379387    0.1067950544    0.5337845334          0.5756
H469       H    0.9364312707    0.0977703986    0.5469211105          0.5584
H470       H    0.9197301253    0.0835915026    0.5051541540         -0.4022
H471       H    0.9184301306    0.1412963764    0.4821835206         -0.3862
H472       H    0.9177990949    0.1582544490    0.5241954189          0.5766
C409       C    0.8662329830   -0.0000000000    0.5000000000         -0.4132
C410       C    0.8469030369    0.0256102750    0.4839059146         -0.4162
C411       C    0.8119213642    0.0240608778    0.4836893808          0.5823
C412       C    0.7944776635   -0.0018172614    0.4988614960          0.5836
C413       C    0.8130064042   -0.0259568183    0.5154025584         -0.4146
C414       C    0.8481325233   -0.0259428069    0.5167011130         -0.4131
C415       C    0.7602262355   -0.0045492633    0.4962448042         -0.4156
H416       H    0.7969855383    0.0441493127    0.4701781895          0.5807
C417       C    0.8612253478    0.0583002693    0.4654444316          0.5812
C418       C    0.8607603477   -0.0586753602    0.5367743448         -0.4098
H419       H    0.7985189459   -0.0472522046    0.5275724112         -0.4134
C420       C    0.7297593686   -0.0075214959    0.4913937221         -0.4127
C421       C    0.6927996741   -0.0099191269    0.4795049007         -0.4056
H422       H    0.8408772512    0.0774625592    0.4594884819          0.5743
H423       H    0.8803532589    0.0719166148    0.4816743472          0.5641
H424       H    0.8733414897    0.0515870657    0.4405511431         -0.3969
O425       O    0.6662561629   -0.0201847451    0.5051593027          0.5796
C426       C    0.6406553424    0.0218749033    0.4671081782          0.5834
C427       C    0.6801910070    0.0254862278    0.4659633405         -0.4149
H428       H    0.6884630948    0.0464373910    0.4835180134          0.5626
H429       H    0.6317071174    0.0077789617    0.4439559812         -0.3936
H430       H    0.6275934078    0.0471979955    0.4683343485          0.5688
H431       H    0.6896448633    0.0308387369    0.4396330958         -0.3983
H432       H    0.6310160001    0.0172880039    0.5225333992          0.5458
C433       C    0.6337670170   -0.0000000000    0.5000000000          0.5708
H434       H    0.6916372962   -0.0289682785    0.4582440132         -0.3809
C435       C    0.8954721540   -0.0612469999    0.5568153098          0.5796
H436       H    0.8932049456   -0.0814400077    0.5768573847          0.5756
H437       H    0.9022296014   -0.0368326005    0.5698994527          0.5584
H438       H    0.9164084974   -0.0700376824    0.5395542809         -0.4022
H439       H    0.8587036236   -0.0811992930    0.5194356718         -0.3862
H440       H    0.8417455510   -0.0634945363    0.5575399943          0.5766
C377       C    1.1337670170   -0.0000000000    0.5000000000         -0.4132
C378       C    1.1530969631   -0.0293864425    0.4928346136         -0.4162
C379       C    1.1880786358   -0.0279851269    0.4921390325          0.5823
C380       C    1.2055223365    0.0013637468    0.4983450603          0.5836
C381       C    1.1869935958    0.0294964149    0.5063997443         -0.4146
C382       C    1.1518674767    0.0298939351    0.5076360363         -0.4131
C383       C    1.2397737645    0.0031276111    0.4949984661         -0.4156
H384       H    1.2030144617   -0.0513162104    0.4856769857          0.5807
C385       C    1.1387746522   -0.0662379344    0.4856631679          0.5812
C386       C    1.1392396523    0.0672956943    0.5163229856         -0.4098
H387       H    1.2014810541    0.0535481125    0.5112075130         -0.4134
C388       C    1.2702406314    0.0044124940    0.4894562428         -0.4127
C389       C    1.3072003259    0.0029258220    0.4774195274         -0.4056
H390       H    1.1591227488   -0.0863002578    0.4860753213          0.5743
H391       H    1.1196467411   -0.0740204191    0.5053671765          0.5641
H392       H    1.1266585103   -0.0677447910    0.4599246307         -0.3969
O393       O    1.3337438371    0.0207802363    0.4985086515          0.5796
C394       C    1.3593446576   -0.0311570704    0.4757179017          0.5834
C395       C    1.3198089930   -0.0349450952    0.4757743459         -0.4149
H396       H    1.3115369052   -0.0492665721    0.4990555203          0.5626
H397       H    1.3682928826   -0.0251095612    0.4492954221         -0.3936
H398       H    1.3724065922   -0.0547916288    0.4848923304          0.5688
H399       H    1.3103551367   -0.0483525532    0.4524897757         -0.3983
H400       H    1.3689839999   -0.0092713871    0.5268453076          0.5458
C401       C    1.3662329830   -0.0000000000    0.5000000000          0.5708
H402       H    1.3083627038    0.0142704753    0.4512242157         -0.3809
C403       C    1.1045278460    0.0760754292    0.5345210586          0.5796
H404       H    1.1067950544    0.1015718308    0.5471454731          0.5756
H405       H    1.0977703986    0.0570542909    0.5546569468          0.5584
H406       H    1.0835915026    0.0789538983    0.5153655469         -0.4022
H407       H    1.1412963764    0.0831774955    0.4927491543         -0.3862
H408       H    1.1582544490    0.0784367916    0.5344974900          0.5766
C345       C   -0.0000000000   -0.1337670170    0.0000000000         -0.4132
C346       C   -0.0184956916   -0.1530969631   -0.0239335572         -0.4162
C347       C   -0.0169665769   -0.1880786358   -0.0236029110          0.5823
C348       C    0.0020982805   -0.2055223365   -0.0004425487          0.5836
C349       C    0.0190593074   -0.1869935958    0.0234038036         -0.4146
C350       C    0.0185986763   -0.1518674767    0.0246179943         -0.4131
C351       C    0.0055646533   -0.2397737645   -0.0019575305         -0.4156
H352       H   -0.0311686945   -0.2030144617   -0.0432089652          0.5807
C353       C   -0.0428216768   -0.1387746522   -0.0525291605          0.5812
C354       C    0.0424092101   -0.1392396523    0.0547412937         -0.4098
H355       H    0.0348566727   -0.2014810541    0.0421665871         -0.4134
C356       C    0.0100265070   -0.2702406314   -0.0054872651         -0.4127
C357       C    0.0163741365   -0.3072003259   -0.0158216886         -0.4056
H358       H   -0.0587578884   -0.1591227488   -0.0647235794          0.5743
H359       H   -0.0611968106   -0.1196467411   -0.0419854666          0.5641
H360       H   -0.0279415005   -0.1266585103   -0.0735844038         -0.3969
O361       O    0.0171705642   -0.3337438371    0.0117989009          0.5796
C362       C   -0.0092006598   -0.3593446576   -0.0384152469          0.5834
C363       C   -0.0121962858   -0.3198089930   -0.0407344156         -0.4149
H364       H   -0.0379134925   -0.3115369052   -0.0314746606          0.5626
H365       H    0.0120100923   -0.3682928826   -0.0552919702         -0.3936
H366       H   -0.0333952657   -0.3724065922   -0.0459904392          0.5688
H367       H   -0.0081476354   -0.3103551367   -0.0672964104         -0.3983
H368       H   -0.0239940671   -0.3689839999    0.0151958515          0.5458
C369       C   -0.0000000000   -0.3662329830    0.0000000000          0.5708
H370       H    0.0415829786   -0.3083627038   -0.0292160826         -0.3809
C371       C    0.0379172832   -0.1045278460    0.0744409434          0.5796
H372       H    0.0499670460   -0.1067950544    0.1002139050          0.5756
H373       H    0.0104894921   -0.0977703986    0.0783105645          0.5584
H374       H    0.0521176408   -0.0835915026    0.0612663823         -0.4022
H375       H    0.0695284225   -0.1412963764    0.0462262803         -0.3862
H376       H    0.0397774356   -0.1582544490    0.0758957358          0.5766
C313       C   -0.0000000000    0.3662329830    0.0000000000         -0.4132
C314       C   -0.0302238910    0.3469030369    0.0011925533         -0.4162
C315       C   -0.0290679029    0.3119213642    0.0001384137          0.5823
C316       C    0.0008560320    0.2944776635   -0.0019661739          0.5836
C317       C    0.0301190615    0.3130064042   -0.0019589165         -0.4146
C318       C    0.0308412496    0.3481325233   -0.0008796183         -0.4131
C319       C    0.0016315267    0.2602262355   -0.0056688106         -0.4156
H320       H   -0.0532764986    0.2969855383    0.0003418854          0.5807
C321       C   -0.0676266496    0.3612253478    0.0044322648          0.5812
C322       C    0.0691898405    0.3607603477   -0.0028135937         -0.4098
H323       H    0.0545655372    0.2985189459   -0.0039510563         -0.4134
C324       C    0.0013426830    0.2297593686   -0.0113506882         -0.4127
C325       C   -0.0033969140    0.1927996741   -0.0225144209         -0.4056
H326       H   -0.0868020339    0.3408772512    0.0103459207          0.5743
H327       H   -0.0696901925    0.3803532589    0.0255167808          0.5641
H328       H   -0.0761538288    0.3733414897   -0.0198994045         -0.3969
O329       O    0.0195688225    0.1662561629   -0.0071486730          0.5796
C330       C   -0.0366335585    0.1406553424   -0.0147772028          0.5834
C331       C   -0.0402599964    0.1801910070   -0.0136811799         -0.4149
H332       H   -0.0476266255    0.1884630948    0.0126408747          0.5626
H333       H   -0.0380857568    0.1317071174   -0.0418439890         -0.3936
H334       H   -0.0568336971    0.1275934078    0.0005432702          0.5688
H335       H   -0.0595540244    0.1896448633   -0.0323806885         -0.3983
H336       H   -0.0015310857    0.1310160001    0.0283599177          0.5458
C337       C   -0.0000000000    0.1337670170    0.0000000000          0.5708
H338       H    0.0003062511    0.1916372962   -0.0508195809         -0.3809
C339       C    0.0826357360    0.3954721540    0.0122682331          0.5796
H340       H    0.1106208861    0.3932049456    0.0173940217          0.5756
H341       H    0.0698856680    0.4022296014    0.0368587487          0.5584
H342       H    0.0801352030    0.4164084974   -0.0069402690         -0.4022
H343       H    0.0779761443    0.3587036236   -0.0298461296         -0.3862
H344       H    0.0848995640    0.3417455510    0.0115961685          0.5766
C281       C   -0.3662329830   -0.0000000000    0.0000000000         -0.4132
C282       C   -0.3469030369   -0.0273735749   -0.0128683007         -0.4162
C283       C   -0.3119213642   -0.0258618904   -0.0132712006          0.5823
C284       C   -0.2944776635    0.0016657214   -0.0013505564          0.5836
C285       C   -0.3130064042    0.0276336660    0.0121398404         -0.4146
C286       C   -0.3481325233    0.0277772925    0.0134305037         -0.4131
C287       C   -0.2602262355    0.0040601005   -0.0042793547         -0.4156
H288       H   -0.2969855383   -0.0474410651   -0.0242455672          0.5807
C289       C   -0.3612253478   -0.0620617799   -0.0272276364          0.5812
C290       C   -0.3607603477    0.0627032716    0.0293845207         -0.4098
H291       H   -0.2985189459    0.0502481530    0.0216363541         -0.4134
C292       C   -0.2297593686    0.0064218705   -0.0094551837         -0.4127
C293       C   -0.1927996741    0.0073594985   -0.0215470638         -0.4056
H294       H   -0.3408772512   -0.0818050849   -0.0308149195          0.5743
H295       H   -0.3803532589   -0.0736086209   -0.0094657252          0.5641
H296       H   -0.3733414897   -0.0584180929   -0.0527514774         -0.3969
O297       O   -0.1662561629    0.0206615630    0.0026724809          0.5796
C298       C   -0.1406553424   -0.0257036125   -0.0299951269          0.5834
C299       C   -0.1801910070   -0.0294271501   -0.0306934005         -0.4149
H300       H   -0.1884630948   -0.0480939211   -0.0107266921          0.5626
H301       H   -0.1317071174   -0.0145204953   -0.0546863740         -0.3936
H302       H   -0.1275934078   -0.0506909164   -0.0257059383          0.5688
H303       H   -0.1896448633   -0.0379343834   -0.0561798306         -0.3983
H304       H   -0.1310160001   -0.0144266726    0.0244642653          0.5458
C305       C   -0.1337670170   -0.0000000000    0.0000000000          0.5708
H306       H   -0.1916372962    0.0236886861   -0.0449618699         -0.3809
C307       C   -0.3954721540    0.0676871900    0.0489654851          0.5796
H308       H   -0.3932049456    0.0901624604    0.0664098123          0.5756
H309       H   -0.4022296014    0.0450404192    0.0649148257          0.5584
H310       H   -0.4164084974    0.0743189205    0.0307655025         -0.4022
H311       H   -0.3587036236    0.0829573999    0.0094414161         -0.3862
H312       H   -0.3417455510    0.0700060414    0.0494121569          0.5766
C249       C    0.1337670170   -0.0000000000    0.0000000000         -0.4132
C250       C    0.1530969631    0.0290589330   -0.0083954858         -0.4162
C251       C    0.1880786358    0.0281890109   -0.0070951958          0.5823
C252       C    0.2055223365   -0.0003602911    0.0021139586          0.5836
C253       C    0.1869935958   -0.0287736348    0.0091144480         -0.4146
C254       C    0.1518674767   -0.0297332669    0.0082394930         -0.4131
C255       C    0.2397737645   -0.0002265623    0.0058945705         -0.4156
H256       H    0.2030144617    0.0516445195   -0.0130899118          0.5807
C257       C    0.1387746522    0.0645976334   -0.0204976699          0.5812
C258       C    0.1392396523   -0.0665029610    0.0193004278         -0.4098
H259       H    0.2014810541   -0.0520317748    0.0169027544         -0.4134
C260       C    0.2702406314    0.0014145005    0.0113419623         -0.4127
C261       C    0.3072003259    0.0086895442    0.0210459021         -0.4056
H262       H    0.1591227488    0.0817989729   -0.0308311403          0.5743
H263       H    0.1196467411    0.0615520864   -0.0414628712          0.5641
H264       H    0.1266585103    0.0787033463    0.0010840765         -0.3969
O265       O    0.3337438371   -0.0172875842    0.0116267696          0.5796
C266       C    0.3593446576    0.0391063405    0.0055747165          0.5834
C267       C    0.3198089930    0.0423648037    0.0036421700         -0.4149
H268       H    0.3115369052    0.0432138280   -0.0236780961          0.5626
H269       H    0.3682928826    0.0469978937    0.0315062259         -0.3936
H270       H    0.3724065922    0.0550499943   -0.0141372696          0.5688
H271       H    0.3103551367    0.0655753803    0.0171773195         -0.3983
H272       H    0.3689839999   -0.0053047320   -0.0279014153          0.5458
C273       C    0.3662329830   -0.0000000000    0.0000000000          0.5708
H274       H    0.3083627038    0.0118722820    0.0494142946         -0.3809
C275       C    0.1045278460   -0.0831692437    0.0078772660          0.5796
H276       H    0.1067950544   -0.1115676088    0.0096021404          0.5756
H277       H    0.0977703986   -0.0766787677   -0.0190509983          0.5584
H278       H    0.0835915026   -0.0761416588    0.0259280905         -0.4022
H279       H    0.1412963764   -0.0685602169    0.0476504689         -0.3862
H280       H    0.1582544490   -0.0852062669    0.0090718890          0.5766
C217       C   -0.0000000000    0.0000000000   -0.1337670170         -0.4132
C218       C    0.0301543293    0.0023711167   -0.1530969631         -0.4162
C219       C    0.0290403591    0.0012726683   -0.1880786358          0.5823
C220       C   -0.0007786510   -0.0019980824   -0.2055223365          0.5836
C221       C   -0.0300196728   -0.0031328052   -0.1869935958         -0.4146
C222       C   -0.0307834298   -0.0020825122   -0.1518674767         -0.4131
C223       C   -0.0014090614   -0.0057281619   -0.2397737645         -0.4156
H224       H    0.0532225736    0.0024207129   -0.2030144617          0.5807
C225       C    0.0674021684    0.0070679838   -0.1387746522          0.5812
C226       C   -0.0690273364   -0.0055115484   -0.1392396523         -0.4098
H227       H   -0.0543697842   -0.0060774386   -0.2014810541         -0.4134
C228       C   -0.0008987055   -0.0113944394   -0.2702406314         -0.4127
C229       C    0.0042729401   -0.0223647079   -0.3072003259         -0.4056
H230       H    0.0863321686    0.0137254445   -0.1591227488          0.5743
H231       H    0.0686413270    0.0282169674   -0.1196467411          0.5641
H232       H    0.0768723830   -0.0169123822   -0.1266585103         -0.3969
O233       O   -0.0192749427   -0.0079068908   -0.3337438371          0.5796
C234       C    0.0371823258   -0.0133363406   -0.3593446576          0.5834
C235       C    0.0407632296   -0.0120996327   -0.3198089930         -0.4149
H236       H    0.0470970425    0.0144898502   -0.3115369052          0.5626
H237       H    0.0396896853   -0.0403258375   -0.3682928826         -0.3936
H238       H    0.0567692034    0.0027607622   -0.3724065922          0.5688
H239       H    0.0607722991   -0.0300319575   -0.3103551367         -0.3983
H240       H    0.0004231882    0.0283980645   -0.3689839999          0.5458
C241       C   -0.0000000000    0.0000000000   -0.3662329830          0.5708
H242       H    0.0016771902   -0.0507928206   -0.3083627038         -0.3809
C243       C   -0.0830515501    0.0090340707   -0.1045278460          0.5796
H244       H   -0.1112154139    0.0130638486   -0.1067950544          0.5756
H245       H   -0.0712708267    0.0341034194   -0.0977703986          0.5584
H246       H   -0.0798033199   -0.0100622174   -0.0835915026         -0.4022
H247       H   -0.0767520164   -0.0328663734   -0.1412963764         -0.3862
H248       H   -0.0852874267    0.0082741733   -0.1582544490          0.5766
C185       C   -0.0000000000    0.0000000000    0.3662329830         -0.4132
C186       C   -0.0289006545    0.0089251297    0.3469030369         -0.4162
C187       C   -0.0274599288    0.0095349068    0.3119213642          0.5823
C188       C    0.0014611004    0.0015696548    0.2944776635          0.5836
C189       C    0.0290566154   -0.0081675163    0.3130064042         -0.4146
C190       C    0.0293788298   -0.0094255378    0.3481325233         -0.4131
C191       C    0.0034236419    0.0048037453    0.2602262355         -0.4156
H192       H   -0.0503586833    0.0173926766    0.2969855383          0.5807
C193       C   -0.0652523964    0.0183066511    0.3612253478          0.5812
C194       C    0.0661884112   -0.0203529985    0.3607603477         -0.4098
H195       H    0.0527744690   -0.0144174935    0.2985189459         -0.4134
C196       C    0.0050405299    0.0102583614    0.2297593686         -0.4127
C197       C    0.0042827036    0.0223628403    0.1927996741         -0.4056
H198       H   -0.0853030437    0.0191055466    0.3408772512          0.5743
H199       H   -0.0742093889   -0.0008919767    0.3803532589          0.5641
H200       H   -0.0652037817    0.0440892140    0.3733414897         -0.3969
O201       O    0.0208323571    0.0002350245    0.1662561629          0.5796
C202       C   -0.0296354588    0.0261174830    0.1406553424          0.5834
C203       C   -0.0334199895    0.0262896615    0.1801910070         -0.4149
H204       H   -0.0491198640    0.0039148604    0.1884630948          0.5626
H205       H   -0.0220049771    0.0521270109    0.1317071174         -0.3936
H206       H   -0.0537804360    0.0183855642    0.1275934078          0.5688
H207       H   -0.0453983415    0.0503406535    0.1896448633         -0.3983
H208       H   -0.0108739958   -0.0262370992    0.1310160001          0.5458
C209       C   -0.0000000000    0.0000000000    0.1337670170          0.5708
H210       H    0.0171869772    0.0478260537    0.1916372962         -0.3809
C211       C    0.0738543215   -0.0390475813    0.3954721540          0.5796
H212       H    0.0985426937   -0.0531871221    0.3932049456          0.5756
H213       H    0.0536530907   -0.0579993086    0.4022296014          0.5584
H214       H    0.0778831412   -0.0201006072    0.4164084974         -0.4022
H215       H    0.0834634233    0.0022197968    0.3587036236         -0.3862
H216       H    0.0762128049   -0.0391665094    0.3417455510          0.5766
loop_
_geom_bond_atom_site_label_1
_geom_bond_atom_site_label_2
_geom_bond_distance
_geom_bond_site_symmetry_2
_ccdc_geom_bond_type
Zn1          O5 1.942       .   S
Zn1          O6 1.922       .   S
Zn1         O10 1.922       .   S
Zn1         O17 1.922       .   S
Zn2          O5 1.942       .   S
Zn2          O7 1.922       .   S
Zn2          O9 1.922       .   S
Zn2         O13 1.922       .   S
Zn3          O5 1.942       .   S
Zn3          O8 1.922       .   S
Zn3         O11 1.922       .   S
Zn3         O14 1.922       .   S
Zn4          O5 1.942       .   S
Zn4         O12 1.922       .   S
Zn4         O15 1.922       .   S
Zn4         O16 1.922       .   S
O6          C18 1.304       .   A
O7          C19 1.304       .   A
O8          C20 1.304       .   A
O9          C18 1.304       .   A
O10         C20 1.304       .   A
O11         C19 1.304       .   A
O12         C21 1.304       .   A
O13         C22 1.304       .   A
O14         C21 1.304       .   A
O15         C22 1.304       .   A
O16         C23 1.304       .   A
O17         C23 1.304       .   A
C18        C209 1.540       .   S
C19        C249 1.540       .   S
C20        C345 1.540       .   S
C21        C217 1.540       .   S
C22        C337 1.540       .   S
C23        C305 1.540       .   S
Zn24        O28 1.942       .   S
Zn24        O29 1.922       .   S
Zn24        O33 1.922       .   S
Zn24        O40 1.922       .   S
Zn25        O28 1.942       .   S
Zn25        O30 1.922       .   S
Zn25        O32 1.922       .   S
Zn25        O36 1.922       .   S
Zn26        O28 1.942       .   S
Zn26        O31 1.922       .   S
Zn26        O34 1.922       .   S
Zn26        O37 1.922       .   S
Zn27        O28 1.942       .   S
Zn27        O35 1.922       .   S
Zn27        O38 1.922       .   S
Zn27        O39 1.922       .   S
O29         C41 1.304       .   A
O30         C42 1.304       .   A
O31         C43 1.304       .   A
O32         C41 1.304       .   A
O33         C43 1.304       .   A
O34         C42 1.304       .   A
O35         C44 1.304       .   A
O36         C45 1.304       .   A
O37         C44 1.304       .   A
O38         C45 1.304       .   A
O39         C46 1.304       .   A
O40         C46 1.304       .   A
C41        C185 1.540   1_655   S
C42        C377 1.540       .   S
C43        C441 1.540       .   S
C44        C241 1.540   1_656   S
C45        C497 1.540       .   S
C46        C409 1.540       .   S
Zn47        O51 1.942       .   S
Zn47        O52 1.922       .   S
Zn47        O56 1.922       .   S
Zn47        O63 1.922       .   S
Zn48        O51 1.942       .   S
Zn48        O53 1.922       .   S
Zn48        O55 1.922       .   S
Zn48        O59 1.922       .   S
Zn49        O51 1.942       .   S
Zn49        O54 1.922       .   S
Zn49        O57 1.922       .   S
Zn49        O60 1.922       .   S
Zn50        O51 1.942       .   S
Zn50        O58 1.922       .   S
Zn50        O61 1.922       .   S
Zn50        O62 1.922       .   S
O52         C64 1.304       .   A
O53         C65 1.304       .   A
O54         C66 1.304       .   A
O55         C64 1.304       .   A
O56         C66 1.304       .   A
O57         C65 1.304       .   A
O58         C67 1.304       .   A
O59         C68 1.304       .   A
O60         C67 1.304       .   A
O61         C68 1.304       .   A
O62         C69 1.304       .   A
O63         C69 1.304       .   A
C64        C505 1.540       .   S
C65        C625 1.540       .   S
C66        C369 1.540   1_665   S
C67        C561 1.540       .   S
C68        C313 1.540   1_655   S
C69        C569 1.540       .   S
Zn70        O74 1.942       .   S
Zn70        O75 1.922       .   S
Zn70        O79 1.922       .   S
Zn70        O86 1.922       .   S
Zn71        O74 1.942       .   S
Zn71        O76 1.922       .   S
Zn71        O78 1.922       .   S
Zn71        O82 1.922       .   S
Zn72        O74 1.942       .   S
Zn72        O77 1.922       .   S
Zn72        O80 1.922       .   S
Zn72        O83 1.922       .   S
Zn73        O74 1.942       .   S
Zn73        O81 1.922       .   S
Zn73        O84 1.922       .   S
Zn73        O85 1.922       .   S
O75         C87 1.304       .   A
O76         C88 1.304       .   A
O77         C89 1.304       .   A
O78         C87 1.304       .   A
O79         C89 1.304       .   A
O80         C88 1.304       .   A
O81         C90 1.304       .   A
O82         C91 1.304       .   A
O83         C90 1.304       .   A
O84         C91 1.304       .   A
O85         C92 1.304       .   A
O86         C92 1.304       .   A
C87        C473 1.540   1_565   S
C88        C633 1.540       .   S
C89        C537 1.540   1_556   S
C90        C465 1.540       .   S
C91        C529 1.540       .   S
C92        C665 1.540       .   S
Zn93        O97 1.942       .   S
Zn93        O98 1.922       .   S
Zn93       O102 1.922       .   S
Zn93       O109 1.922       .   S
Zn94        O97 1.942       .   S
Zn94        O99 1.922       .   S
Zn94       O101 1.922       .   S
Zn94       O105 1.922       .   S
Zn95        O97 1.942       .   S
Zn95       O100 1.922       .   S
Zn95       O103 1.922       .   S
Zn95       O106 1.922       .   S
Zn96        O97 1.942       .   S
Zn96       O104 1.922       .   S
Zn96       O107 1.922       .   S
Zn96       O108 1.922       .   S
O98        C110 1.304       .   A
O99        C111 1.304       .   A
O100       C112 1.304       .   A
O101       C110 1.304       .   A
O102       C112 1.304       .   A
O103       C111 1.304       .   A
O104       C113 1.304       .   A
O105       C114 1.304       .   A
O106       C113 1.304       .   A
O107       C114 1.304       .   A
O108       C115 1.304       .   A
O109       C115 1.304       .   A
C110       C273 1.540   1_565   S
C111       C697 1.540       .   S
C112       C793 1.540       .   S
C113       C281 1.540   1_665   S
C114       C761 1.540       .   S
C115       C729 1.540       .   S
Zn116      O120 1.942       .   S
Zn116      O121 1.922       .   S
Zn116      O125 1.922       .   S
Zn116      O132 1.922       .   S
Zn117      O120 1.942       .   S
Zn117      O122 1.922       .   S
Zn117      O124 1.922       .   S
Zn117      O128 1.922       .   S
Zn118      O120 1.942       .   S
Zn118      O123 1.922       .   S
Zn118      O126 1.922       .   S
Zn118      O129 1.922       .   S
Zn119      O120 1.942       .   S
Zn119      O127 1.922       .   S
Zn119      O130 1.922       .   S
Zn119      O131 1.922       .   S
O121       C133 1.304       .   A
O122       C134 1.304       .   A
O123       C135 1.304       .   A
O124       C133 1.304       .   A
O125       C135 1.304       .   A
O126       C134 1.304       .   A
O127       C136 1.304       .   A
O128       C137 1.304       .   A
O129       C136 1.304       .   A
O130       C137 1.304       .   A
O131       C138 1.304       .   A
O132       C138 1.304       .   A
C133       C401 1.540   1_465   S
C134       C721 1.540       .   S
C135       C825 1.540       .   S
C136       C433 1.540   1_565   S
C137       C857 1.540       .   S
C138       C753 1.540   1_556   S
Zn139      O143 1.942       .   S
Zn139      O144 1.922       .   S
Zn139      O148 1.922       .   S
Zn139      O155 1.922       .   S
Zn140      O143 1.942       .   S
Zn140      O145 1.922       .   S
Zn140      O147 1.922       .   S
Zn140      O151 1.922       .   S
Zn141      O143 1.942       .   S
Zn141      O146 1.922       .   S
Zn141      O149 1.922       .   S
Zn141      O152 1.922       .   S
Zn142      O143 1.942       .   S
Zn142      O150 1.922       .   S
Zn142      O153 1.922       .   S
Zn142      O154 1.922       .   S
O144       C156 1.304       .   A
O145       C157 1.304       .   A
O146       C158 1.304       .   A
O147       C156 1.304       .   A
O148       C158 1.304       .   A
O149       C157 1.304       .   A
O150       C159 1.304       .   A
O151       C160 1.304       .   A
O152       C159 1.304       .   A
O153       C160 1.304       .   A
O154       C161 1.304       .   A
O155       C161 1.304       .   A
C156       C593 1.540   1_455   S
C157       C785 1.540   1_545   S
C158       C921 1.540       .   S
C159       C601 1.540       .   S
C160       C913 1.540       .   S
C161       C817 1.540       .   S
Zn162      O166 1.942       .   S
Zn162      O167 1.922       .   S
Zn162      O171 1.922       .   S
Zn162      O178 1.922       .   S
Zn163      O166 1.942       .   S
Zn163      O168 1.922       .   S
Zn163      O170 1.922       .   S
Zn163      O174 1.922       .   S
Zn164      O166 1.942       .   S
Zn164      O169 1.922       .   S
Zn164      O172 1.922       .   S
Zn164      O175 1.922       .   S
Zn165      O166 1.942       .   S
Zn165      O173 1.922       .   S
Zn165      O176 1.922       .   S
Zn165      O177 1.922       .   S
O167       C179 1.304       .   A
O168       C180 1.304       .   A
O169       C181 1.304       .   A
O170       C179 1.304       .   A
O171       C181 1.304       .   A
O172       C180 1.304       .   A
O173       C182 1.304       .   A
O174       C183 1.304       .   A
O175       C182 1.304       .   A
O176       C183 1.304       .   A
O177       C184 1.304       .   A
O178       C184 1.304       .   A
C179       C657 1.540   1_455   S
C180       C849 1.540   1_545   S
C181       C889 1.540       .   S
C182       C689 1.540       .   S
C183       C945 1.540   1_556   S
C184       C881 1.540       .   S
C921       C922 0.031       .   A
C921       C926 0.031       .   A
C922       C923 0.031       .   A
C922       C929 0.035       .   A
C923       C924 0.030       .   A
C923       H928 0.025       .   A
C924       C925 0.030       .   A
C924       C927 0.030       .   A
C925       C926 0.031       .   A
C925       H931 0.025       .   A
C926       C930 0.035       .   A
C927       C932 0.027       .   A
C929       H934 0.025       .   A
C929       H935 0.025       .   A
C929       H936 0.025       .   A
C930       C947 0.035       .   A
C930       H951 0.025       .   A
C930       H952 0.025       .   A
C932       C933 0.034       .   A
C933       O937 0.034       .   A
C933       C939 0.035       .   A
C933       H946 0.025       .   A
O937       C945 0.034       .   A
C938       C939 0.035       .   A
C938       H941 0.025       .   A
C938       H942 0.025       .   A
C938       C945 0.035       .   A
C939       H940 0.025       .   A
C939       H943 0.025       .   A
H944       C945 0.025       .   A
C947       H948 0.025       .   A
C947       H949 0.025       .   A
C947       H950 0.025       .   A
C889       C890 0.031       .   A
C889       C894 0.031       .   A
C890       C891 0.031       .   A
C890       C897 0.035       .   A
C891       C892 0.030       .   A
C891       H896 0.025       .   A
C892       C893 0.030       .   A
C892       C895 0.030       .   A
C893       C894 0.031       .   A
C893       H899 0.025       .   A
C894       C898 0.035       .   A
C895       C900 0.027       .   A
C897       H902 0.025       .   A
C897       H903 0.025       .   A
C897       H904 0.025       .   A
C898       C915 0.035       .   A
C898       H919 0.025       .   A
C898       H920 0.025       .   A
C900       C901 0.034       .   A
C901       O905 0.034       .   A
C901       C907 0.035       .   A
C901       H914 0.025       .   A
O905       C913 0.034       .   A
C906       C907 0.035       .   A
C906       H909 0.025       .   A
C906       H910 0.025       .   A
C906       C913 0.035       .   A
C907       H908 0.025       .   A
C907       H911 0.025       .   A
H912       C913 0.025       .   A
C915       H916 0.025       .   A
C915       H917 0.025       .   A
C915       H918 0.025       .   A
C857       C858 0.031       .   A
C857       C862 0.031       .   A
C858       C859 0.031       .   A
C858       C865 0.035       .   A
C859       C860 0.030       .   A
C859       H864 0.025       .   A
C860       C861 0.030       .   A
C860       C863 0.030       .   A
C861       C862 0.031       .   A
C861       H867 0.025       .   A
C862       C866 0.035       .   A
C863       C868 0.027       .   A
C865       H870 0.025       .   A
C865       H871 0.025       .   A
C865       H872 0.025       .   A
C866       C883 0.035       .   A
C866       H887 0.025       .   A
C866       H888 0.025       .   A
C868       C869 0.034       .   A
C869       O873 0.034       .   A
C869       C875 0.035       .   A
C869       H882 0.025       .   A
O873       C881 0.034       .   A
C874       C875 0.035       .   A
C874       H877 0.025       .   A
C874       H878 0.025       .   A
C874       C881 0.035       .   A
C875       H876 0.025       .   A
C875       H879 0.025       .   A
H880       C881 0.025       .   A
C883       H884 0.025       .   A
C883       H885 0.025       .   A
C883       H886 0.025       .   A
C825       C826 0.031       .   A
C825       C830 0.031       .   A
C826       C827 0.031       .   A
C826       C833 0.035       .   A
C827       C828 0.030       .   A
C827       H832 0.025       .   A
C828       C829 0.030       .   A
C828       C831 0.030       .   A
C829       C830 0.031       .   A
C829       H835 0.025       .   A
C830       C834 0.035       .   A
C831       C836 0.027       .   A
C833       H838 0.025       .   A
C833       H839 0.025       .   A
C833       H840 0.025       .   A
C834       C851 0.035       .   A
C834       H855 0.025       .   A
C834       H856 0.025       .   A
C836       C837 0.034       .   A
C837       O841 0.034       .   A
C837       C843 0.035       .   A
C837       H850 0.025       .   A
O841       C849 0.034       .   A
C842       C843 0.035       .   A
C842       H845 0.025       .   A
C842       H846 0.025       .   A
C842       C849 0.035       .   A
C843       H844 0.025       .   A
C843       H847 0.025       .   A
H848       C849 0.025       .   A
C851       H852 0.025       .   A
C851       H853 0.025       .   A
C851       H854 0.025       .   A
C793       C794 0.031       .   A
C793       C798 0.031       .   A
C794       C795 0.031       .   A
C794       C801 0.035       .   A
C795       C796 0.030       .   A
C795       H800 0.025       .   A
C796       C797 0.030       .   A
C796       C799 0.030       .   A
C797       C798 0.031       .   A
C797       H803 0.025       .   A
C798       C802 0.035       .   A
C799       C804 0.027       .   A
C801       H806 0.025       .   A
C801       H807 0.025       .   A
C801       H808 0.025       .   A
C802       C819 0.035       .   A
C802       H823 0.025       .   A
C802       H824 0.025       .   A
C804       C805 0.034       .   A
C805       O809 0.034       .   A
C805       C811 0.035       .   A
C805       H818 0.025       .   A
O809       C817 0.034       .   A
C810       C811 0.035       .   A
C810       H813 0.025       .   A
C810       H814 0.025       .   A
C810       C817 0.035       .   A
C811       H812 0.025       .   A
C811       H815 0.025       .   A
H816       C817 0.025       .   A
C819       H820 0.025       .   A
C819       H821 0.025       .   A
C819       H822 0.025       .   A
C761       C762 0.031       .   A
C761       C766 0.031       .   A
C762       C763 0.031       .   A
C762       C769 0.035       .   A
C763       C764 0.030       .   A
C763       H768 0.025       .   A
C764       C765 0.030       .   A
C764       C767 0.030       .   A
C765       C766 0.031       .   A
C765       H771 0.025       .   A
C766       C770 0.035       .   A
C767       C772 0.027       .   A
C769       H774 0.025       .   A
C769       H775 0.025       .   A
C769       H776 0.025       .   A
C770       C787 0.035       .   A
C770       H791 0.025       .   A
C770       H792 0.025       .   A
C772       C773 0.034       .   A
C773       O777 0.034       .   A
C773       C779 0.035       .   A
C773       H786 0.025       .   A
O777       C785 0.034       .   A
C778       C779 0.035       .   A
C778       H781 0.025       .   A
C778       H782 0.025       .   A
C778       C785 0.035       .   A
C779       H780 0.025       .   A
C779       H783 0.025       .   A
H784       C785 0.025       .   A
C787       H788 0.025       .   A
C787       H789 0.025       .   A
C787       H790 0.025       .   A
C729       C730 0.031       .   A
C729       C734 0.031       .   A
C730       C731 0.031       .   A
C730       C737 0.035       .   A
C731       C732 0.030       .   A
C731       H736 0.025       .   A
C732       C733 0.030       .   A
C732       C735 0.030       .   A
C733       C734 0.031       .   A
C733       H739 0.025       .   A
C734       C738 0.035       .   A
C735       C740 0.027       .   A
C737       H742 0.025       .   A
C737       H743 0.025       .   A
C737       H744 0.025       .   A
C738       C755 0.035       .   A
C738       H759 0.025       .   A
C738       H760 0.025       .   A
C740       C741 0.034       .   A
C741       O745 0.034       .   A
C741       C747 0.035       .   A
C741       H754 0.025       .   A
O745       C753 0.034       .   A
C746       C747 0.035       .   A
C746       H749 0.025       .   A
C746       H750 0.025       .   A
C746       C753 0.035       .   A
C747       H748 0.025       .   A
C747       H751 0.025       .   A
H752       C753 0.025       .   A
C755       H756 0.025       .   A
C755       H757 0.025       .   A
C755       H758 0.025       .   A
C697       C698 0.031       .   A
C697       C702 0.031       .   A
C698       C699 0.031       .   A
C698       C705 0.035       .   A
C699       C700 0.030       .   A
C699       H704 0.025       .   A
C700       C701 0.030       .   A
C700       C703 0.030       .   A
C701       C702 0.031       .   A
C701       H707 0.025       .   A
C702       C706 0.035       .   A
C703       C708 0.027       .   A
C705       H710 0.025       .   A
C705       H711 0.025       .   A
C705       H712 0.025       .   A
C706       C723 0.035       .   A
C706       H727 0.025       .   A
C706       H728 0.025       .   A
C708       C709 0.034       .   A
C709       O713 0.034       .   A
C709       C715 0.035       .   A
C709       H722 0.025       .   A
O713       C721 0.034       .   A
C714       C715 0.035       .   A
C714       H717 0.025       .   A
C714       H718 0.025       .   A
C714       C721 0.035       .   A
C715       H716 0.025       .   A
C715       H719 0.025       .   A
H720       C721 0.025       .   A
C723       H724 0.025       .   A
C723       H725 0.025       .   A
C723       H726 0.025       .   A
C665       C666 0.031       .   A
C665       C670 0.031       .   A
C666       C667 0.031       .   A
C666       C673 0.035       .   A
C667       C668 0.030       .   A
C667       H672 0.025       .   A
C668       C669 0.030       .   A
C668       C671 0.030       .   A
C669       C670 0.031       .   A
C669       H675 0.025       .   A
C670       C674 0.035       .   A
C671       C676 0.027       .   A
C673       H678 0.025       .   A
C673       H679 0.025       .   A
C673       H680 0.025       .   A
C674       C691 0.035       .   A
C674       H695 0.025       .   A
C674       H696 0.025       .   A
C676       C677 0.034       .   A
C677       O681 0.034       .   A
C677       C683 0.035       .   A
C677       H690 0.025       .   A
O681       C689 0.034       .   A
C682       C683 0.035       .   A
C682       H685 0.025       .   A
C682       H686 0.025       .   A
C682       C689 0.035       .   A
C683       H684 0.025       .   A
C683       H687 0.025       .   A
H688       C689 0.025       .   A
C691       H692 0.025       .   A
C691       H693 0.025       .   A
C691       H694 0.025       .   A
C633       C634 0.031       .   A
C633       C638 0.031       .   A
C634       C635 0.031       .   A
C634       C641 0.035       .   A
C635       C636 0.030       .   A
C635       H640 0.025       .   A
C636       C637 0.030       .   A
C636       C639 0.030       .   A
C637       C638 0.031       .   A
C637       H643 0.025       .   A
C638       C642 0.035       .   A
C639       C644 0.027       .   A
C641       H646 0.025       .   A
C641       H647 0.025       .   A
C641       H648 0.025       .   A
C642       C659 0.035       .   A
C642       H663 0.025       .   A
C642       H664 0.025       .   A
C644       C645 0.034       .   A
C645       O649 0.034       .   A
C645       C651 0.035       .   A
C645       H658 0.025       .   A
O649       C657 0.034       .   A
C650       C651 0.035       .   A
C650       H653 0.025       .   A
C650       H654 0.025       .   A
C650       C657 0.035       .   A
C651       H652 0.025       .   A
C651       H655 0.025       .   A
H656       C657 0.025       .   A
C659       H660 0.025       .   A
C659       H661 0.025       .   A
C659       H662 0.025       .   A
C601       C602 0.031       .   A
C601       C606 0.031       .   A
C602       C603 0.031       .   A
C602       C609 0.035       .   A
C603       C604 0.030       .   A
C603       H608 0.025       .   A
C604       C605 0.030       .   A
C604       C607 0.030       .   A
C605       C606 0.031       .   A
C605       H611 0.025       .   A
C606       C610 0.035       .   A
C607       C612 0.027       .   A
C609       H614 0.025       .   A
C609       H615 0.025       .   A
C609       H616 0.025       .   A
C610       C627 0.035       .   A
C610       H631 0.025       .   A
C610       H632 0.025       .   A
C612       C613 0.034       .   A
C613       O617 0.034       .   A
C613       C619 0.035       .   A
C613       H626 0.025       .   A
O617       C625 0.034       .   A
C618       C619 0.035       .   A
C618       H621 0.025       .   A
C618       H622 0.025       .   A
C618       C625 0.035       .   A
C619       H620 0.025       .   A
C619       H623 0.025       .   A
H624       C625 0.025       .   A
C627       H628 0.025       .   A
C627       H629 0.025       .   A
C627       H630 0.025       .   A
C569       C570 0.031       .   A
C569       C574 0.031       .   A
C570       C571 0.031       .   A
C570       C577 0.035       .   A
C571       C572 0.030       .   A
C571       H576 0.025       .   A
C572       C573 0.030       .   A
C572       C575 0.030       .   A
C573       C574 0.031       .   A
C573       H579 0.025       .   A
C574       C578 0.035       .   A
C575       C580 0.027       .   A
C577       H582 0.025       .   A
C577       H583 0.025       .   A
C577       H584 0.025       .   A
C578       C595 0.035       .   A
C578       H599 0.025       .   A
C578       H600 0.025       .   A
C580       C581 0.034       .   A
C581       O585 0.034       .   A
C581       C587 0.035       .   A
C581       H594 0.025       .   A
O585       C593 0.034       .   A
C586       C587 0.035       .   A
C586       H589 0.025       .   A
C586       H590 0.025       .   A
C586       C593 0.035       .   A
C587       H588 0.025       .   A
C587       H591 0.025       .   A
H592       C593 0.025       .   A
C595       H596 0.025       .   A
C595       H597 0.025       .   A
C595       H598 0.025       .   A
C537       C538 0.031       .   A
C537       C542 0.031       .   A
C538       C539 0.031       .   A
C538       C545 0.035       .   A
C539       C540 0.030       .   A
C539       H544 0.025       .   A
C540       C541 0.030       .   A
C540       C543 0.030       .   A
C541       C542 0.031       .   A
C541       H547 0.025       .   A
C542       C546 0.035       .   A
C543       C548 0.027       .   A
C545       H550 0.025       .   A
C545       H551 0.025       .   A
C545       H552 0.025       .   A
C546       C563 0.035       .   A
C546       H567 0.025       .   A
C546       H568 0.025       .   A
C548       C549 0.034       .   A
C549       O553 0.034       .   A
C549       C555 0.035       .   A
C549       H562 0.025       .   A
O553       C561 0.034       .   A
C554       C555 0.035       .   A
C554       H557 0.025       .   A
C554       H558 0.025       .   A
C554       C561 0.035       .   A
C555       H556 0.025       .   A
C555       H559 0.025       .   A
H560       C561 0.025       .   A
C563       H564 0.025       .   A
C563       H565 0.025       .   A
C563       H566 0.025       .   A
C505       C506 0.031       .   A
C505       C510 0.031       .   A
C506       C507 0.031       .   A
C506       C513 0.035       .   A
C507       C508 0.030       .   A
C507       H512 0.025       .   A
C508       C509 0.030       .   A
C508       C511 0.030       .   A
C509       C510 0.031       .   A
C509       H515 0.025       .   A
C510       C514 0.035       .   A
C511       C516 0.027       .   A
C513       H518 0.025       .   A
C513       H519 0.025       .   A
C513       H520 0.025       .   A
C514       C531 0.035       .   A
C514       H535 0.025       .   A
C514       H536 0.025       .   A
C516       C517 0.034       .   A
C517       O521 0.034       .   A
C517       C523 0.035       .   A
C517       H530 0.025       .   A
O521       C529 0.034       .   A
C522       C523 0.035       .   A
C522       H525 0.025       .   A
C522       H526 0.025       .   A
C522       C529 0.035       .   A
C523       H524 0.025       .   A
C523       H527 0.025       .   A
H528       C529 0.025       .   A
C531       H532 0.025       .   A
C531       H533 0.025       .   A
C531       H534 0.025       .   A
C473       C474 0.031       .   A
C473       C478 0.031       .   A
C474       C475 0.031       .   A
C474       C481 0.035       .   A
C475       C476 0.030       .   A
C475       H480 0.025       .   A
C476       C477 0.030       .   A
C476       C479 0.030       .   A
C477       C478 0.031       .   A
C477       H483 0.025       .   A
C478       C482 0.035       .   A
C479       C484 0.027       .   A
C481       H486 0.025       .   A
C481       H487 0.025       .   A
C481       H488 0.025       .   A
C482       C499 0.035       .   A
C482       H503 0.025       .   A
C482       H504 0.025       .   A
C484       C485 0.034       .   A
C485       O489 0.034       .   A
C485       C491 0.035       .   A
C485       H498 0.025       .   A
O489       C497 0.034       .   A
C490       C491 0.035       .   A
C490       H493 0.025       .   A
C490       H494 0.025       .   A
C490       C497 0.035       .   A
C491       H492 0.025       .   A
C491       H495 0.025       .   A
H496       C497 0.025       .   A
C499       H500 0.025       .   A
C499       H501 0.025       .   A
C499       H502 0.025       .   A
C441       C442 0.031       .   A
C441       C446 0.031       .   A
C442       C443 0.031       .   A
C442       C449 0.035       .   A
C443       C444 0.030       .   A
C443       H448 0.025       .   A
C444       C445 0.030       .   A
C444       C447 0.030       .   A
C445       C446 0.031       .   A
C445       H451 0.025       .   A
C446       C450 0.035       .   A
C447       C452 0.027       .   A
C449       H454 0.025       .   A
C449       H455 0.025       .   A
C449       H456 0.025       .   A
C450       C467 0.035       .   A
C450       H471 0.025       .   A
C450       H472 0.025       .   A
C452       C453 0.034       .   A
C453       O457 0.034       .   A
C453       C459 0.035       .   A
C453       H466 0.025       .   A
O457       C465 0.034       .   A
C458       C459 0.035       .   A
C458       H461 0.025       .   A
C458       H462 0.025       .   A
C458       C465 0.035       .   A
C459       H460 0.025       .   A
C459       H463 0.025       .   A
H464       C465 0.025       .   A
C467       H468 0.025       .   A
C467       H469 0.025       .   A
C467       H470 0.025       .   A
C409       C410 0.031       .   A
C409       C414 0.031       .   A
C410       C411 0.031       .   A
C410       C417 0.035       .   A
C411       C412 0.030       .   A
C411       H416 0.025       .   A
C412       C413 0.030       .   A
C412       C415 0.030       .   A
C413       C414 0.031       .   A
C413       H419 0.025       .   A
C414       C418 0.035       .   A
C415       C420 0.027       .   A
C417       H422 0.025       .   A
C417       H423 0.025       .   A
C417       H424 0.025       .   A
C418       C435 0.035       .   A
C418       H439 0.025       .   A
C418       H440 0.025       .   A
C420       C421 0.034       .   A
C421       O425 0.034       .   A
C421       C427 0.035       .   A
C421       H434 0.025       .   A
O425       C433 0.034       .   A
C426       C427 0.035       .   A
C426       H429 0.025       .   A
C426       H430 0.025       .   A
C426       C433 0.035       .   A
C427       H428 0.025       .   A
C427       H431 0.025       .   A
H432       C433 0.025       .   A
C435       H436 0.025       .   A
C435       H437 0.025       .   A
C435       H438 0.025       .   A
C377       C378 0.031       .   A
C377       C382 0.031       .   A
C378       C379 0.031       .   A
C378       C385 0.035       .   A
C379       C380 0.030       .   A
C379       H384 0.025       .   A
C380       C381 0.030       .   A
C380       C383 0.030       .   A
C381       C382 0.031       .   A
C381       H387 0.025       .   A
C382       C386 0.035       .   A
C383       C388 0.027       .   A
C385       H390 0.025       .   A
C385       H391 0.025       .   A
C385       H392 0.025       .   A
C386       C403 0.035       .   A
C386       H407 0.025       .   A
C386       H408 0.025       .   A
C388       C389 0.034       .   A
C389       O393 0.034       .   A
C389       C395 0.035       .   A
C389       H402 0.025       .   A
O393       C401 0.034       .   A
C394       C395 0.035       .   A
C394       H397 0.025       .   A
C394       H398 0.025       .   A
C394       C401 0.035       .   A
C395       H396 0.025       .   A
C395       H399 0.025       .   A
H400       C401 0.025       .   A
C403       H404 0.025       .   A
C403       H405 0.025       .   A
C403       H406 0.025       .   A
C345       C346 0.031       .   A
C345       C350 0.031       .   A
C346       C347 0.031       .   A
C346       C353 0.035       .   A
C347       C348 0.030       .   A
C347       H352 0.025       .   A
C348       C349 0.030       .   A
C348       C351 0.030       .   A
C349       C350 0.031       .   A
C349       H355 0.025       .   A
C350       C354 0.035       .   A
C351       C356 0.027       .   A
C353       H358 0.025       .   A
C353       H359 0.025       .   A
C353       H360 0.025       .   A
C354       C371 0.035       .   A
C354       H375 0.025       .   A
C354       H376 0.025       .   A
C356       C357 0.034       .   A
C357       O361 0.034       .   A
C357       C363 0.035       .   A
C357       H370 0.025       .   A
O361       C369 0.034       .   A
C362       C363 0.035       .   A
C362       H365 0.025       .   A
C362       H366 0.025       .   A
C362       C369 0.035       .   A
C363       H364 0.025       .   A
C363       H367 0.025       .   A
H368       C369 0.025       .   A
C371       H372 0.025       .   A
C371       H373 0.025       .   A
C371       H374 0.025       .   A
C313       C314 0.031       .   A
C313       C318 0.031       .   A
C314       C315 0.031       .   A
C314       C321 0.035       .   A
C315       C316 0.030       .   A
C315       H320 0.025       .   A
C316       C317 0.030       .   A
C316       C319 0.030       .   A
C317       C318 0.031       .   A
C317       H323 0.025       .   A
C318       C322 0.035       .   A
C319       C324 0.027       .   A
C321       H326 0.025       .   A
C321       H327 0.025       .   A
C321       H328 0.025       .   A
C322       C339 0.035       .   A
C322       H343 0.025       .   A
C322       H344 0.025       .   A
C324       C325 0.034       .   A
C325       O329 0.034       .   A
C325       C331 0.035       .   A
C325       H338 0.025       .   A
O329       C337 0.034       .   A
C330       C331 0.035       .   A
C330       H333 0.025       .   A
C330       H334 0.025       .   A
C330       C337 0.035       .   A
C331       H332 0.025       .   A
C331       H335 0.025       .   A
H336       C337 0.025       .   A
C339       H340 0.025       .   A
C339       H341 0.025       .   A
C339       H342 0.025       .   A
C281       C282 0.031       .   A
C281       C286 0.031       .   A
C282       C283 0.031       .   A
C282       C289 0.035       .   A
C283       C284 0.030       .   A
C283       H288 0.025       .   A
C284       C285 0.030       .   A
C284       C287 0.030       .   A
C285       C286 0.031       .   A
C285       H291 0.025       .   A
C286       C290 0.035       .   A
C287       C292 0.027       .   A
C289       H294 0.025       .   A
C289       H295 0.025       .   A
C289       H296 0.025       .   A
C290       C307 0.035       .   A
C290       H311 0.025       .   A
C290       H312 0.025       .   A
C292       C293 0.034       .   A
C293       O297 0.034       .   A
C293       C299 0.035       .   A
C293       H306 0.025       .   A
O297       C305 0.034       .   A
C298       C299 0.035       .   A
C298       H301 0.025       .   A
C298       H302 0.025       .   A
C298       C305 0.035       .   A
C299       H300 0.025       .   A
C299       H303 0.025       .   A
H304       C305 0.025       .   A
C307       H308 0.025       .   A
C307       H309 0.025       .   A
C307       H310 0.025       .   A
C249       C250 0.031       .   A
C249       C254 0.031       .   A
C250       C251 0.031       .   A
C250       C257 0.035       .   A
C251       C252 0.030       .   A
C251       H256 0.025       .   A
C252       C253 0.030       .   A
C252       C255 0.030       .   A
C253       C254 0.031       .   A
C253       H259 0.025       .   A
C254       C258 0.035       .   A
C255       C260 0.027       .   A
C257       H262 0.025       .   A
C257       H263 0.025       .   A
C257       H264 0.025       .   A
C258       C275 0.035       .   A
C258       H279 0.025       .   A
C258       H280 0.025       .   A
C260       C261 0.034       .   A
C261       O265 0.034       .   A
C261       C267 0.035       .   A
C261       H274 0.025       .   A
O265       C273 0.034       .   A
C266       C267 0.035       .   A
C266       H269 0.025       .   A
C266       H270 0.025       .   A
C266       C273 0.035       .   A
C267       H268 0.025       .   A
C267       H271 0.025       .   A
H272       C273 0.025       .   A
C275       H276 0.025       .   A
C275       H277 0.025       .   A
C275       H278 0.025       .   A
C217       C218 0.031       .   A
C217       C222 0.031       .   A
C218       C219 0.031       .   A
C218       C225 0.035       .   A
C219       C220 0.030       .   A
C219       H224 0.025       .   A
C220       C221 0.030       .   A
C220       C223 0.030       .   A
C221       C222 0.031       .   A
C221       H227 0.025       .   A
C222       C226 0.035       .   A
C223       C228 0.027       .   A
C225       H230 0.025       .   A
C225       H231 0.025       .   A
C225       H232 0.025       .   A
C226       C243 0.035       .   A
C226       H247 0.025       .   A
C226       H248 0.025       .   A
C228       C229 0.034       .   A
C229       O233 0.034       .   A
C229       C235 0.035       .   A
C229       H242 0.025       .   A
O233       C241 0.034       .   A
C234       C235 0.035       .   A
C234       H237 0.025       .   A
C234       H238 0.025       .   A
C234       C241 0.035       .   A
C235       H236 0.025       .   A
C235       H239 0.025       .   A
H240       C241 0.025       .   A
C243       H244 0.025       .   A
C243       H245 0.025       .   A
C243       H246 0.025       .   A
C185       C186 0.031       .   A
C185       C190 0.031       .   A
C186       C187 0.031       .   A
C186       C193 0.035       .   A
C187       C188 0.030       .   A
C187       H192 0.025       .   A
C188       C189 0.030       .   A
C188       C191 0.030       .   A
C189       C190 0.031       .   A
C189       H195 0.025       .   A
C190       C194 0.035       .   A
C191       C196 0.027       .   A
C193       H198 0.025       .   A
C193       H199 0.025       .   A
C193       H200 0.025       .   A
C194       C211 0.035       .   A
C194       H215 0.025       .   A
C194       H216 0.025       .   A
C196       C197 0.034       .   A
C197       O201 0.034       .   A
C197       C203 0.035       .   A
C197       H210 0.025       .   A
O201       C209 0.034       .   A
C202       C203 0.035       .   A
C202       H205 0.025       .   A
C202       H206 0.025       .   A
C202       C209 0.035       .   A
C203       H204 0.025       .   A
C203       H207 0.025       .   A
H208       C209 0.025       .   A
C211       H212 0.025       .   A
C211       H213 0.025       .   A
C211       H214 0.025       .   A
