data_pcu_v1-6c_Zn_1_Ch_1-20_fer_tobacco
_audit_creation_date              2021-02-03
_audit_creation_method            'tobacco_3.0'
_symmetry_space_group_name_H-M    'P1'
_symmetry_Int_Tables_number       1
_symmetry_cell_setting            triclinic
loop_
_symmetry_equiv_pos_as_xyz
  x,y,z
_cell_length_a                    34.551592604434866
_cell_length_b                    34.551592604434866
_cell_length_c                    34.551592604434866
_cell_angle_alpha                 90.0
_cell_angle_beta                  90.0
_cell_angle_gamma                 90.0
loop_
_atom_site_label
_atom_site_type_symbol
_atom_site_fract_x
_atom_site_fract_y
_atom_site_fract_z
_atom_site_charge
Zn1       Zn   -0.0324500237   -0.0324500237    0.0324500237          1.4972
Zn2       Zn    0.0324500237    0.0324500237    0.0324500237          1.4936
Zn3       Zn    0.0324500237   -0.0324500237   -0.0324500237          1.4911
Zn4       Zn   -0.0324500237    0.0324500237   -0.0324500237          1.4948
O5         O    0.0000000000    0.0000000000    0.0000000000         -2.0928
O6         O   -0.0238483942   -0.0238483942    0.0867282743         -0.9991
O7         O    0.0867282743    0.0238483942    0.0238483942         -0.9973
O8         O    0.0238483942   -0.0867282743   -0.0238483942         -0.9925
O9         O    0.0238483942    0.0238483942    0.0867282743         -0.9992
O10        O   -0.0238483942   -0.0867282743    0.0238483942         -0.9952
O11        O    0.0867282743   -0.0238483942   -0.0238483942         -1.0011
O12        O   -0.0238483942    0.0238483942   -0.0867282743          -0.995
O13        O    0.0238483942    0.0867282743    0.0238483942         -1.0025
O14        O    0.0238483942   -0.0238483942   -0.0867282743         -0.9964
O15        O   -0.0238483942    0.0867282743   -0.0238483942         -1.0011
O16        O   -0.0867282743    0.0238483942   -0.0238483942         -1.0002
O17        O   -0.0867282743   -0.0238483942    0.0238483942         -0.9981
C18        C   -0.0000000000   -0.0000000000    0.1036942071          0.5198
C19        C    0.1036942071   -0.0000000000   -0.0000000000          0.5247
C20        C   -0.0000000000   -0.1036942071    0.0000000000          0.5143
C21        C    0.0000000000    0.0000000000   -0.1036942071          0.5181
C22        C    0.0000000000    0.1036942071   -0.0000000000          0.5294
C23        C   -0.1036942071    0.0000000000    0.0000000000          0.5199
Zn24      Zn    0.9675499763    0.0324500237    0.4675499763          1.4972
Zn25      Zn    1.0324500237   -0.0324500237    0.4675499763          1.4936
Zn26      Zn    1.0324500237    0.0324500237    0.5324500237          1.4911
Zn27      Zn    0.9675499763   -0.0324500237    0.5324500237          1.4948
O28        O    1.0000000000    0.0000000000    0.5000000000         -2.0928
O29        O    0.9761516058    0.0238483942    0.4132717257         -0.9991
O30        O    1.0867282743   -0.0238483942    0.4761516058         -0.9973
O31        O    1.0238483942    0.0867282743    0.5238483942         -0.9925
O32        O    1.0238483942   -0.0238483942    0.4132717257         -0.9992
O33        O    0.9761516058    0.0867282743    0.4761516058         -0.9952
O34        O    1.0867282743    0.0238483942    0.5238483942         -1.0011
O35        O    0.9761516058   -0.0238483942    0.5867282743          -0.995
O36        O    1.0238483942   -0.0867282743    0.4761516058         -1.0025
O37        O    1.0238483942    0.0238483942    0.5867282743         -0.9964
O38        O    0.9761516058   -0.0867282743    0.5238483942         -1.0011
O39        O    0.9132717257   -0.0238483942    0.5238483942         -1.0002
O40        O    0.9132717257    0.0238483942    0.4761516058         -0.9981
C41        C    1.0000000000    0.0000000000    0.3963057929          0.5198
C42        C    1.1036942071    0.0000000000    0.5000000000          0.5247
C43        C    1.0000000000    0.1036942071    0.5000000000          0.5143
C44        C    1.0000000000    0.0000000000    0.6036942071          0.5181
C45        C    1.0000000000   -0.1036942071    0.5000000000          0.5294
C46        C    0.8963057929    0.0000000000    0.5000000000          0.5199
Zn47      Zn    1.0324500237    0.5324500237   -0.0324500237          1.4972
Zn48      Zn    0.9675499763    0.5324500237    0.0324500237          1.4936
Zn49      Zn    0.9675499763    0.4675499763   -0.0324500237          1.4911
Zn50      Zn    1.0324500237    0.4675499763    0.0324500237          1.4948
O51        O    1.0000000000    0.5000000000    0.0000000000         -2.0928
O52        O    1.0238483942    0.5867282743   -0.0238483942         -0.9991
O53        O    0.9132717257    0.5238483942    0.0238483942         -0.9973
O54        O    0.9761516058    0.4761516058   -0.0867282743         -0.9925
O55        O    0.9761516058    0.5867282743    0.0238483942         -0.9992
O56        O    1.0238483942    0.5238483942   -0.0867282743         -0.9952
O57        O    0.9132717257    0.4761516058   -0.0238483942         -1.0011
O58        O    1.0238483942    0.4132717257    0.0238483942          -0.995
O59        O    0.9761516058    0.5238483942    0.0867282743         -1.0025
O60        O    0.9761516058    0.4132717257   -0.0238483942         -0.9964
O61        O    1.0238483942    0.4761516058    0.0867282743         -1.0011
O62        O    1.0867282743    0.4761516058    0.0238483942         -1.0002
O63        O    1.0867282743    0.5238483942   -0.0238483942         -0.9981
C64        C    1.0000000000    0.6036942071    0.0000000000          0.5198
C65        C    0.8963057929    0.5000000000    0.0000000000          0.5247
C66        C    1.0000000000    0.5000000000   -0.1036942071          0.5143
C67        C    1.0000000000    0.3963057929    0.0000000000          0.5181
C68        C    1.0000000000    0.5000000000    0.1036942071          0.5294
C69        C    1.1036942071    0.5000000000    0.0000000000          0.5199
Zn70      Zn    0.9675499763    0.4675499763    0.5324500237          1.4972
Zn71      Zn    1.0324500237    0.4675499763    0.4675499763          1.4936
Zn72      Zn    0.9675499763    0.5324500237    0.4675499763          1.4911
Zn73      Zn    1.0324500237    0.5324500237    0.5324500237          1.4948
O74        O    1.0000000000    0.5000000000    0.5000000000         -2.0928
O75        O    0.9761516058    0.4132717257    0.5238483942         -0.9991
O76        O    1.0238483942    0.4761516058    0.4132717257         -0.9973
O77        O    0.9132717257    0.5238483942    0.4761516058         -0.9925
O78        O    1.0238483942    0.4132717257    0.4761516058         -0.9992
O79        O    0.9132717257    0.4761516058    0.5238483942         -0.9952
O80        O    0.9761516058    0.5238483942    0.4132717257         -1.0011
O81        O    1.0238483942    0.5867282743    0.5238483942          -0.995
O82        O    1.0867282743    0.4761516058    0.4761516058         -1.0025
O83        O    0.9761516058    0.5867282743    0.4761516058         -0.9964
O84        O    1.0867282743    0.5238483942    0.5238483942         -1.0011
O85        O    1.0238483942    0.5238483942    0.5867282743         -1.0002
O86        O    0.9761516058    0.4761516058    0.5867282743         -0.9981
C87        C    1.0000000000    0.3963057929    0.5000000000          0.5198
C88        C    1.0000000000    0.5000000000    0.3963057929          0.5247
C89        C    0.8963057929    0.5000000000    0.5000000000          0.5143
C90        C    1.0000000000    0.6036942071    0.5000000000          0.5181
C91        C    1.1036942071    0.5000000000    0.5000000000          0.5294
C92        C    1.0000000000    0.5000000000    0.6036942071          0.5199
Zn93      Zn    0.4675499763    0.9675499763   -0.0324500237          1.4972
Zn94      Zn    0.4675499763    1.0324500237    0.0324500237          1.4936
Zn95      Zn    0.5324500237    0.9675499763    0.0324500237          1.4911
Zn96      Zn    0.5324500237    1.0324500237   -0.0324500237          1.4948
O97        O    0.5000000000    1.0000000000    0.0000000000         -2.0928
O98        O    0.4132717257    0.9761516058   -0.0238483942         -0.9991
O99        O    0.4761516058    1.0238483942    0.0867282743         -0.9973
O100       O    0.5238483942    0.9132717257    0.0238483942         -0.9925
O101       O    0.4132717257    1.0238483942    0.0238483942         -0.9992
O102       O    0.4761516058    0.9132717257   -0.0238483942         -0.9952
O103       O    0.5238483942    0.9761516058    0.0867282743         -1.0011
O104       O    0.5867282743    1.0238483942   -0.0238483942          -0.995
O105       O    0.4761516058    1.0867282743    0.0238483942         -1.0025
O106       O    0.5867282743    0.9761516058    0.0238483942         -0.9964
O107       O    0.5238483942    1.0867282743   -0.0238483942         -1.0011
O108       O    0.5238483942    1.0238483942   -0.0867282743         -1.0002
O109       O    0.4761516058    0.9761516058   -0.0867282743         -0.9981
C110       C    0.3963057929    1.0000000000    0.0000000000          0.5198
C111       C    0.5000000000    1.0000000000    0.1036942071          0.5247
C112       C    0.5000000000    0.8963057929    0.0000000000          0.5143
C113       C    0.6036942071    1.0000000000    0.0000000000          0.5181
C114       C    0.5000000000    1.1036942071    0.0000000000          0.5294
C115       C    0.5000000000    1.0000000000   -0.1036942071          0.5199
Zn116     Zn    0.4675499763    1.0324500237    0.5324500237          1.4972
Zn117     Zn    0.4675499763    0.9675499763    0.4675499763          1.4936
Zn118     Zn    0.5324500237    1.0324500237    0.4675499763          1.4911
Zn119     Zn    0.5324500237    0.9675499763    0.5324500237          1.4948
O120       O    0.5000000000    1.0000000000    0.5000000000         -2.0928
O121       O    0.4132717257    1.0238483942    0.5238483942         -0.9991
O122       O    0.4761516058    0.9761516058    0.4132717257         -0.9973
O123       O    0.5238483942    1.0867282743    0.4761516058         -0.9925
O124       O    0.4132717257    0.9761516058    0.4761516058         -0.9992
O125       O    0.4761516058    1.0867282743    0.5238483942         -0.9952
O126       O    0.5238483942    1.0238483942    0.4132717257         -1.0011
O127       O    0.5867282743    0.9761516058    0.5238483942          -0.995
O128       O    0.4761516058    0.9132717257    0.4761516058         -1.0025
O129       O    0.5867282743    1.0238483942    0.4761516058         -0.9964
O130       O    0.5238483942    0.9132717257    0.5238483942         -1.0011
O131       O    0.5238483942    0.9761516058    0.5867282743         -1.0002
O132       O    0.4761516058    1.0238483942    0.5867282743         -0.9981
C133       C    0.3963057929    1.0000000000    0.5000000000          0.5198
C134       C    0.5000000000    1.0000000000    0.3963057929          0.5247
C135       C    0.5000000000    1.1036942071    0.5000000000          0.5143
C136       C    0.6036942071    1.0000000000    0.5000000000          0.5181
C137       C    0.5000000000    0.8963057929    0.5000000000          0.5294
C138       C    0.5000000000    1.0000000000    0.6036942071          0.5199
Zn139     Zn    0.4675499763    0.5324500237   -0.0324500237          1.4972
Zn140     Zn    0.4675499763    0.4675499763    0.0324500237          1.4936
Zn141     Zn    0.5324500237    0.4675499763   -0.0324500237          1.4911
Zn142     Zn    0.5324500237    0.5324500237    0.0324500237          1.4948
O143       O    0.5000000000    0.5000000000    0.0000000000         -2.0928
O144       O    0.4132717257    0.5238483942   -0.0238483942         -0.9991
O145       O    0.4761516058    0.4132717257    0.0238483942         -0.9973
O146       O    0.5238483942    0.4761516058   -0.0867282743         -0.9925
O147       O    0.4132717257    0.4761516058    0.0238483942         -0.9992
O148       O    0.4761516058    0.5238483942   -0.0867282743         -0.9952
O149       O    0.5238483942    0.4132717257   -0.0238483942         -1.0011
O150       O    0.5867282743    0.5238483942    0.0238483942          -0.995
O151       O    0.4761516058    0.4761516058    0.0867282743         -1.0025
O152       O    0.5867282743    0.4761516058   -0.0238483942         -0.9964
O153       O    0.5238483942    0.5238483942    0.0867282743         -1.0011
O154       O    0.5238483942    0.5867282743    0.0238483942         -1.0002
O155       O    0.4761516058    0.5867282743   -0.0238483942         -0.9981
C156       C    0.3963057929    0.5000000000    0.0000000000          0.5198
C157       C    0.5000000000    0.3963057929    0.0000000000          0.5247
C158       C    0.5000000000    0.5000000000   -0.1036942071          0.5143
C159       C    0.6036942071    0.5000000000    0.0000000000          0.5181
C160       C    0.5000000000    0.5000000000    0.1036942071          0.5294
C161       C    0.5000000000    0.6036942071    0.0000000000          0.5199
Zn162     Zn    0.4675499763    0.5324500237    0.4675499763          1.4972
Zn163     Zn    0.4675499763    0.4675499763    0.5324500237          1.4936
Zn164     Zn    0.5324500237    0.4675499763    0.4675499763          1.4911
Zn165     Zn    0.5324500237    0.5324500237    0.5324500237          1.4948
O166       O    0.5000000000    0.5000000000    0.5000000000         -2.0928
O167       O    0.4132717257    0.5238483942    0.4761516058         -0.9991
O168       O    0.4761516058    0.4132717257    0.5238483942         -0.9973
O169       O    0.5238483942    0.4761516058    0.4132717257         -0.9925
O170       O    0.4132717257    0.4761516058    0.5238483942         -0.9992
O171       O    0.4761516058    0.5238483942    0.4132717257         -0.9952
O172       O    0.5238483942    0.4132717257    0.4761516058         -1.0011
O173       O    0.5867282743    0.5238483942    0.5238483942          -0.995
O174       O    0.4761516058    0.4761516058    0.5867282743         -1.0025
O175       O    0.5867282743    0.4761516058    0.4761516058         -0.9964
O176       O    0.5238483942    0.5238483942    0.5867282743         -1.0011
O177       O    0.5238483942    0.5867282743    0.5238483942         -1.0002
O178       O    0.4761516058    0.5867282743    0.4761516058         -0.9981
C179       C    0.3963057929    0.5000000000    0.5000000000          0.5198
C180       C    0.5000000000    0.3963057929    0.5000000000          0.5247
C181       C    0.5000000000    0.5000000000    0.3963057929          0.5143
C182       C    0.6036942071    0.5000000000    0.5000000000          0.5181
C183       C    0.5000000000    0.5000000000    0.6036942071          0.5294
C184       C    0.5000000000    0.6036942071    0.5000000000          0.5199
C668       C    0.5000000000    0.5000000000   -0.1482652351         -0.2542
C669       C    0.4999938180    0.4658034819   -0.1674606563         -0.2542
C670       C    0.5001343538    0.4662406824   -0.2074200116         -0.2544
C671       C    0.5000170527    0.4993420170   -0.2298655238         -0.2544
C672       C    0.4999714945    0.5322656200   -0.2081022876         -0.2543
C673       C    0.5000013582    0.5320155945   -0.1695791011         -0.2542
C674       C    0.4999825494    0.5000150710   -0.2703799915         -0.2544
C675       C    0.5004993356    0.4350826708   -0.2158575019          0.7452
Cl676     Cl    0.4997788033    0.4226590466   -0.1394806924         -0.2539
H677       H    0.4999689082    0.5600861452   -0.1553092762         -0.2542
F678       F    0.4997299809    0.5687012506   -0.2211542957         -0.2541
C679       C    0.4993890959    0.4677938436   -0.2929674123 -0.25470000000000004
C680       C    0.4994753739    0.4675100430   -0.3314039755         -0.2541
C681       C    0.5000000000    0.5000000000   -0.3517347649          0.7454
C682       C    0.5004142341    0.5328592406   -0.3314943005           0.745
C683       C    0.5004448273    0.5326596483   -0.2926451633          0.7451
H684       H    0.4990744066    0.4394777810   -0.3457570493         -0.2537
H685       H    0.4986675629    0.4387063194   -0.2829191622         -0.2532
H686       H    0.5009547881    0.5616730579   -0.2816494595          0.7446
H687       H    0.5008075545    0.5605921700   -0.3464375666          0.7446
N688       N    0.5026005970    0.4029946687   -0.2243139543          0.7432
C647       C    0.5000000000    0.5000000000    0.1482652351         -0.2542
C648       C    0.5341965181    0.5000061820    0.1674606563         -0.2542
C649       C    0.5337593176    0.4998656462    0.2074200116         -0.2544
C650       C    0.5006579830    0.4999829473    0.2298655238         -0.2544
C651       C    0.4677343800    0.5000285055    0.2081022876         -0.2543
C652       C    0.4679844055    0.4999986418    0.1695791011         -0.2542
C653       C    0.4999849290    0.5000174506    0.2703799915         -0.2544
C654       C    0.5649173292    0.4995006644    0.2158575019          0.7452
Cl655     Cl    0.5773409534    0.5002211967    0.1394806924         -0.2539
H656       H    0.4399138548    0.5000310918    0.1553092762         -0.2542
F657       F    0.4312987494    0.5002700191    0.2211542957         -0.2541
C658       C    0.5322061564    0.5006109041    0.2929674123         -0.2539
C659       C    0.5324899570    0.5005246261    0.3314039755         -0.2541
C660       C    0.5000000000    0.5000000000    0.3517347649          0.7454
C661       C    0.4671407594    0.4995857659    0.3314943005           0.745
C662       C    0.4673403517    0.4995551727    0.2926451633          0.7451
H663       H    0.5605222190    0.5009255934    0.3457570493         -0.2537
H664       H    0.5612936806    0.5013324371    0.2829191622         -0.2532
H665       H    0.4383269421    0.4990452119    0.2816494595          0.7446
H666       H    0.4394078300    0.4991924455    0.3464375666          0.7446
N667       N    0.5970053313    0.4973994030    0.2243139543          0.7432
C626       C    0.5000000000    0.6482652351    0.5000000000         -0.2542
C627       C    0.4989053850    0.6674606563    0.4658210049         -0.2542
C628       C    0.4990597652    0.7074200116    0.4662535108         -0.2544
C629       C    0.4999961012    0.7298655238    0.4993418076         -0.2544
C630       C    0.5009984868    0.7081022876    0.5322501794         -0.2543
C631       C    0.5010203774    0.6695791011    0.5319993300         -0.2542
C632       C    0.4999830379    0.7703799915    0.5000156188         -0.2544
C633       C    0.4984328382    0.7158575019    0.4350996689          0.7452
Cl634     Cl    0.4973172411    0.6394806924    0.4227052731         -0.2539
H635       H    0.5018813974    0.6553092762    0.5600566912         -0.2542
F636       F    0.5019168001    0.7211542957    0.5686750363         -0.2541
C637       C    0.4983643202    0.7929674123    0.4678296057         -0.2539
C638       C    0.4984415214    0.8314039755    0.4675432028         -0.2541
C639       C    0.5000000000    0.8517347649    0.5000000000          0.7454
C640       C    0.5014598964    0.8314943005    0.5328294073           0.745
C641       C    0.5014841213    0.7926451633    0.5326289424          0.7451
H642       H    0.4971485224    0.8457570493    0.4395379062         -0.2537
H643       H    0.4967173301    0.7829191622    0.4387797849         -0.2532
H644       H    0.5029172874    0.7816494595    0.5616114204          0.7446
H645       H    0.5027357250    0.8464375666    0.5605357665          0.7446
N646       N    0.4995117104    0.7243139543    0.4029610440          0.7432
C605       C    0.5000000000    1.1482652351    0.5000000000         -0.2542
C606       C    0.4658034819    1.1674606563    0.5000061820         -0.2542
C607       C    0.4662406824    1.2074200116    0.4998656462         -0.2544
C608       C    0.4993420170    1.2298655238    0.4999829473         -0.2544
C609       C    0.5322656200    1.2081022876    0.5000285055         -0.2543
C610       C    0.5320155945    1.1695791011    0.4999986418         -0.2542
C611       C    0.5000150710    1.2703799915    0.5000174506         -0.2544
C612       C    0.4350826708    1.2158575019    0.4995006644          0.7452
Cl613     Cl    0.4226590466    1.1394806924    0.5002211967         -0.2539
H614       H    0.5600861452    1.1553092762    0.5000310918         -0.2542
F615       F    0.5687012506    1.2211542957    0.5002700191         -0.2541
C616       C    0.4677938436    1.2929674123    0.5006109041         -0.2539
C617       C    0.4675100430    1.3314039755    0.5005246261         -0.2541
C618       C    0.5000000000    1.3517347649    0.5000000000          0.7454
C619       C    0.5328592406    1.3314943005    0.4995857659           0.745
C620       C    0.5326596483    1.2926451633    0.4995551727          0.7451
H621       H    0.4394777810    1.3457570493    0.5009255934         -0.2537
H622       H    0.4387063194    1.2829191622    0.5013324371         -0.2532
H623       H    0.5616730579    1.2816494595    0.4990452119          0.7446
H624       H    0.5605921700    1.3464375666    0.4991924455          0.7446
N625       N    0.4029946687    1.2243139543    0.4973994030          0.7432
C584       C    0.5000000000    0.8517347649    0.0000000000         -0.2542
C585       C    0.5331154050    0.8325393437   -0.0085306411         -0.2542
C586       C    0.5326569636    0.7925799884   -0.0085575873         -0.2544
C587       C    0.5006328944    0.7701344762   -0.0001807680         -0.2544
C588       C    0.4687630204    0.7918977124    0.0080822119         -0.2543
C589       C    0.4689976751    0.8304208989    0.0079908786         -0.2542
C590       C    0.4999897624    0.7296200085    0.0000206604         -0.2544
C591       C    0.5627374056    0.7841424981   -0.0166891255          0.7452
Cl592     Cl    0.5749475694    0.8605193076   -0.0190927692         -0.2539
H593       H    0.4418239342    0.8446907238    0.0150296765         -0.2542
F594       F    0.4335412261    0.7788457043    0.0174116661         -0.2541
C595       C    0.5313390173    0.7070325877   -0.0074482016         -0.2539
C596       C    0.5315922949    0.6685960245   -0.0076025945         -0.2541
C597       C    0.5000000000    0.6482652351    0.0000000000          0.7454
C598       C    0.4680776706    0.6685056995    0.0078016774           0.745
C599       C    0.4682633068    0.7073548367    0.0077222277          0.7451
H600       H    0.5588371551    0.6542429507   -0.0142121388         -0.2537
H601       H    0.5596857545    0.7170808378   -0.0140107591         -0.2532
H602       H    0.4400411533    0.7183505405    0.0144711574          0.7446
H603       H    0.4411245750    0.6535624334    0.0143439028          0.7446
N604       N    0.5932849595    0.7756860457   -0.0267341306          0.7432
C563       C    0.5000000000    1.1482652351    0.0000000000         -0.2542
C564       C    0.5241669673    1.1674606563    0.0241942055         -0.2542
C565       C    0.5237586022    1.2074200116    0.0239841280         -0.2544
C566       C    0.5004528509    1.2298655238    0.0004776594         -0.2544
C567       C    0.4772219137    1.2081022876   -0.0228523485         -0.2543
C568       C    0.4773774443    1.1695791011   -0.0226543211         -0.2542
C569       C    0.5000016997    1.2703799915   -0.0000229950         -0.2544
C570       C    0.5455159724    1.2158575019    0.0462904442          0.7452
Cl571     Cl    0.5548041352    1.1394806924    0.0545726925         -0.2539
H572       H    0.4575663033    1.1553092762   -0.0425408885         -0.2542
F573       F    0.4516481107    1.2211542957   -0.0488060400         -0.2541
C574       C    0.5231885377    1.2929674123    0.0223584757         -0.2539
C575       C    0.5233280126    1.3314039755    0.0226202646         -0.2541
C576       C    0.5000000000    1.3517347649    0.0000000000          0.7454
C577       C    0.4764891759    1.3314943005   -0.0229595826           0.745
C578       C    0.4766085552    1.2926451633   -0.0227967280          0.7451
H579       H    0.5434187996    1.3457570493    0.0421734935         -0.2537
H580       H    0.5442517952    1.2829191622    0.0424319371         -0.2532
H581       H    0.4557473809    1.2816494595   -0.0429672363          0.7446
H582       H    0.4566153025    1.3464375666   -0.0423063971          0.7446
N583       N    0.5667018077    1.2243139543    0.0704816732          0.7432
C542       C    0.5000000000    1.0000000000   -0.1482652351         -0.2542
C543       C    0.4999938180    0.9658034819   -0.1674606563         -0.2542
C544       C    0.5001343538    0.9662406824   -0.2074200116         -0.2544
C545       C    0.5000170527    0.9993420170   -0.2298655238         -0.2544
C546       C    0.4999714945    1.0322656200   -0.2081022876         -0.2543
C547       C    0.5000013582    1.0320155945   -0.1695791011         -0.2542
C548       C    0.4999825494    1.0000150710   -0.2703799915         -0.2544
C549       C    0.5004993356    0.9350826708   -0.2158575019          0.7452
Cl550     Cl    0.4997788033    0.9226590466   -0.1394806924         -0.2539
H551       H    0.4999689082    1.0600861452   -0.1553092762         -0.2542
F552       F    0.4997299809    1.0687012506   -0.2211542957         -0.2541
C553       C    0.4993890959    0.9677938436   -0.2929674123         -0.2539
C554       C    0.4994753739    0.9675100430   -0.3314039755         -0.2541
C555       C    0.5000000000    1.0000000000   -0.3517347649          0.7454
C556       C    0.5004142341    1.0328592406   -0.3314943005           0.745
C557       C    0.5004448273    1.0326596483   -0.2926451633          0.7451
H558       H    0.4990744066    0.9394777810   -0.3457570493         -0.2537
H559       H    0.4986675629    0.9387063194   -0.2829191622         -0.2532
H560       H    0.5009547881    1.0616730579   -0.2816494595          0.7446
H561       H    0.5008075545    1.0605921700   -0.3464375666          0.7446
N562       N    0.5026005970    0.9029946687   -0.2243139543          0.7432
C521       C    0.5000000000    1.0000000000    0.1482652351         -0.2542
C522       C    0.5341965181    1.0000061820    0.1674606563         -0.2542
C523       C    0.5337593176    0.9998656462    0.2074200116         -0.2544
C524       C    0.5006579830    0.9999829473    0.2298655238         -0.2544
C525       C    0.4677343800    1.0000285055    0.2081022876         -0.2543
C526       C    0.4679844055    0.9999986418    0.1695791011         -0.2542
C527       C    0.4999849290    1.0000174506    0.2703799915         -0.2544
C528       C    0.5649173292    0.9995006644    0.2158575019          0.7452
Cl529     Cl    0.5773409534    1.0002211967    0.1394806924         -0.2539
H530       H    0.4399138548    1.0000310918    0.1553092762         -0.2542
F531       F    0.4312987494    1.0002700191    0.2211542957         -0.2541
C532       C    0.5322061564    1.0006109041    0.2929674123         -0.2539
C533       C    0.5324899570    1.0005246261    0.3314039755         -0.2541
C534       C    0.5000000000    1.0000000000    0.3517347649          0.7454
C535       C    0.4671407594    0.9995857659    0.3314943005           0.745
C536       C    0.4673403517    0.9995551727    0.2926451633          0.7451
H537       H    0.5605222190    1.0009255934    0.3457570493         -0.2537
H538       H    0.5612936806    1.0013324371    0.2829191622         -0.2532
H539       H    0.4383269421    0.9990452119    0.2816494595          0.7446
H540       H    0.4394078300    0.9991924455    0.3464375666          0.7446
N541       N    0.5970053313    0.9973994030    0.2243139543          0.7432
C500       C    0.8517347649    0.5000000000    0.5000000000         -0.2542
C501       C    0.8325393437    0.4758792396    0.5242402724         -0.2542
C502       C    0.7925799884    0.4760880770    0.5238312717         -0.2544
C503       C    0.7701344762    0.4995237169    0.5004542983         -0.2544
C504       C    0.7918977124    0.5227831241    0.4771526740         -0.2543
C505       C    0.8304208989    0.5225855695    0.4773088048         -0.2542
C506       C    0.7296200085    0.5000230001    0.5000016299         -0.2544
C507       C    0.7841424981    0.4538478853    0.5456562294          0.7452
Cl508     Cl    0.8605193076    0.4455938597    0.5549694815         -0.2539
H509       H    0.8446907238    0.5424119293    0.4574374101         -0.2542
F510       F    0.7788457043    0.5486590934    0.4515002333         -0.2541
C511       C    0.7070325877    0.4777119919    0.5232562768         -0.2539
C512       C    0.6685960245    0.4774506274    0.5233965454         -0.2541
C513       C    0.6482652351    0.5000000000    0.5000000000          0.7454
C514       C    0.6685056995    0.5228881342    0.4764196142           0.745
C515       C    0.7073548367    0.5227256426    0.4765394871          0.7451
H516       H    0.6542429507    0.4579584533    0.5435465735         -0.2537
H517       H    0.7170808378    0.4577025386    0.5443803495         -0.2532
H518       H    0.7183505405    0.5428327557    0.4556172023          0.7446
H519       H    0.6535624334    0.5421745532    0.4564871252          0.7446
N520       N    0.7756860457    0.4297210552    0.5669153744          0.7432
C479       C    1.1482652351    0.5000000000    0.5000000000         -0.2542
C480       C    1.1674606563    0.5242402724    0.4758792396         -0.2542
C481       C    1.2074200116    0.5238312717    0.4760880770         -0.2544
C482       C    1.2298655238    0.5004542983    0.4995237169         -0.2544
C483       C    1.2081022876    0.4771526740    0.5227831241         -0.2543
C484       C    1.1695791011    0.4773088048    0.5225855695         -0.2542
C485       C    1.2703799915    0.5000016299    0.5000230001         -0.2544
C486       C    1.2158575019    0.5456562294    0.4538478853          0.7452
Cl487     Cl    1.1394806924    0.5549694815    0.4455938597         -0.2539
H488       H    1.1553092762    0.4574374101    0.5424119293         -0.2542
F489       F    1.2211542957    0.4515002333    0.5486590934         -0.2541
C490       C    1.2929674123    0.5232562768    0.4777119919         -0.2539
C491       C    1.3314039755    0.5233965454    0.4774506274         -0.2541
C492       C    1.3517347649    0.5000000000    0.5000000000          0.7454
C493       C    1.3314943005    0.4764196142    0.5228881342           0.745
C494       C    1.2926451633    0.4765394871    0.5227256426          0.7451
H495       H    1.3457570493    0.5435465735    0.4579584533         -0.2537
H496       H    1.2829191622    0.5443803495    0.4577025386         -0.2532
H497       H    1.2816494595    0.4556172023    0.5428327557          0.7446
H498       H    1.3464375666    0.4564871252    0.5421745532          0.7446
N499       N    1.2243139543    0.5669153744    0.4297210552          0.7432
C458       C    0.6482652351    0.5000000000    0.0000000000         -0.2542
C459       C    0.6674606563    0.4735217312   -0.0216403136         -0.2542
C460       C    0.7074200116    0.4737713899   -0.0212548721         -0.2544
C461       C    0.7298655238    0.4994796614   -0.0004030883         -0.2544
C462       C    0.7081022876    0.5250049051    0.0203918064         -0.2543
C463       C    0.6695791011    0.5247923882    0.0202567465         -0.2542
C464       C    0.7703799915    0.5000227119   -0.0000039788         -0.2544
C465       C    0.7158575019    0.4494113470   -0.0406853432          0.7452
Cl466     Cl    0.6394806924    0.4402462163   -0.0491035369         -0.2539
H467       H    0.6553092762    0.5465510786    0.0379913529         -0.2542
F468       F    0.7211542957    0.5533738811    0.0432569481         -0.2541
C469       C    0.7929674123    0.4754456873   -0.0208493511         -0.2539
C470       C    0.8314039755    0.4751713222   -0.0209620920         -0.2541
C471       C    0.8517347649    0.5000000000    0.0000000000          0.7454
C472       C    0.8314943005    0.5251844983    0.0211102423           0.745
C473       C    0.7926451633    0.5250105759    0.0210076555          0.7451
H474       H    0.8457570493    0.4537164985   -0.0390081171         -0.2537
H475       H    0.7829191622    0.4533764724   -0.0398112715         -0.2532
H476       H    0.7816494595    0.5471562536    0.0397588410          0.7446
H477       H    0.8464375666    0.5464123535    0.0389609632          0.7446
N478       N    0.7243139543    0.4232325957   -0.0593596078          0.7432
C437       C    1.1482652351    0.5000000000    0.0000000000         -0.2542
C438       C    1.1674606563    0.4661676074   -0.0049770576         -0.2542
C439       C    1.2074200116    0.4665797353   -0.0047744613         -0.2544
C440       C    1.2298655238    0.4993465271   -0.0000787754         -0.2544
C441       C    1.2081022876    0.5319270463    0.0046620555         -0.2543
C442       C    1.1695791011    0.5316753354    0.0046552573         -0.2542
C443       C    1.2703799915    0.5000174476   -0.0000150745         -0.2544
C444       C    1.2158575019    0.4356996211   -0.0089426081          0.7452
Cl445     Cl    1.1394806924    0.4235126970   -0.0114614343         -0.2539
H446       H    1.1553092762    0.5594524447    0.0087035983         -0.2542
F447       F    1.2211542957    0.5680107740    0.0097195347         -0.2541
C448       C    1.2929674123    0.4682247328   -0.0052860297         -0.2539
C449       C    1.3314039755    0.4679314049   -0.0052419225         -0.2541
C450       C    1.3517347649    0.5000000000    0.0000000000          0.7454
C451       C    1.3314943005    0.5324500032    0.0051863835           0.745
C452       C    1.2926451633    0.5322480838    0.0051876383          0.7451
H453       H    1.3457570493    0.4402551809   -0.0097135113         -0.2537
H454       H    1.2829191622    0.4395510540   -0.0102281763         -0.2532
H455       H    1.2816494595    0.5608791903    0.0099096864          0.7446
H456       H    1.3464375666    0.5598311858    0.0096068946          0.7446
N457       N    1.2243139543    0.4036470021   -0.0115281049          0.7432
C416       C    1.0000000000    0.5000000000   -0.1482652351         -0.2542
C417       C    1.0341965181    0.4999938180   -0.1674606563         -0.2542
C418       C    1.0337593176    0.5001343538   -0.2074200116         -0.2544
C419       C    1.0006579830    0.5000170527   -0.2298655238         -0.2544
C420       C    0.9677343800    0.4999714945   -0.2081022876         -0.2543
C421       C    0.9679844055    0.5000013582   -0.1695791011         -0.2542
C422       C    0.9999849290    0.4999825494   -0.2703799915         -0.2544
C423       C    1.0649173292    0.5004993356   -0.2158575019          0.7452
Cl424     Cl    1.0773409534    0.4997788033   -0.1394806924         -0.2539
H425       H    0.9399138548    0.4999689082   -0.1553092762         -0.2542
F426       F    0.9312987494    0.4997299809   -0.2211542957         -0.2541
C427       C    1.0322061564    0.4993890959   -0.2929674123         -0.2539
C428       C    1.0324899570    0.4994753739   -0.3314039755         -0.2541
C429       C    1.0000000000    0.5000000000   -0.3517347649          0.7454
C430       C    0.9671407594    0.5004142341   -0.3314943005           0.745
C431       C    0.9673403517    0.5004448273   -0.2926451633          0.7451
H432       H    1.0605222190    0.4990744066   -0.3457570493         -0.2537
H433       H    1.0612936806    0.4986675629   -0.2829191622         -0.2532
H434       H    0.9383269421    0.5009547881   -0.2816494595          0.7446
H435       H    0.9394078300    0.5008075545   -0.3464375666          0.7446
N436       N    1.0970053313    0.5026005970   -0.2243139543          0.7432
C395       C    1.0000000000    0.5000000000    0.1482652351         -0.2542
C396       C    0.9658034819    0.4999938180    0.1674606563         -0.2542
C397       C    0.9662406824    0.5001343538    0.2074200116         -0.2544
C398       C    0.9993420170    0.5000170527    0.2298655238         -0.2544
C399       C    1.0322656200    0.4999714945    0.2081022876         -0.2543
C400       C    1.0320155945    0.5000013582    0.1695791011         -0.2542
C401       C    1.0000150710    0.4999825494    0.2703799915         -0.2544
C402       C    0.9350826708    0.5004993356    0.2158575019          0.7452
Cl403     Cl    0.9226590466    0.4997788033    0.1394806924         -0.2539
H404       H    1.0600861452    0.4999689082    0.1553092762         -0.2542
F405       F    1.0687012506    0.4997299809    0.2211542957         -0.2541
C406       C    0.9677938436    0.4993890959    0.2929674123         -0.2539
C407       C    0.9675100430    0.4994753739    0.3314039755         -0.2541
C408       C    1.0000000000    0.5000000000    0.3517347649          0.7454
C409       C    1.0328592406    0.5004142341    0.3314943005           0.745
C410       C    1.0326596483    0.5004448273    0.2926451633          0.7451
H411       H    0.9394777810    0.4990744066    0.3457570493         -0.2537
H412       H    0.9387063194    0.4986675629    0.2829191622         -0.2532
H413       H    1.0616730579    0.5009547881    0.2816494595          0.7446
H414       H    1.0605921700    0.5008075545    0.3464375666          0.7446
N415       N    0.9029946687    0.5026005970    0.2243139543          0.7432
C374       C    1.0000000000   -0.1482652351    0.5000000000         -0.2542
C375       C    1.0341965181   -0.1674606563    0.5000061820         -0.2542
C376       C    1.0337593176   -0.2074200116    0.4998656462         -0.2544
C377       C    1.0006579830   -0.2298655238    0.4999829473         -0.2544
C378       C    0.9677343800   -0.2081022876    0.5000285055         -0.2543
C379       C    0.9679844055   -0.1695791011    0.4999986418         -0.2542
C380       C    0.9999849290   -0.2703799915    0.5000174506         -0.2544
C381       C    1.0649173292   -0.2158575019    0.4995006644          0.7452
Cl382     Cl    1.0773409534   -0.1394806924    0.5002211967         -0.2539
H383       H    0.9399138548   -0.1553092762    0.5000310918         -0.2542
F384       F    0.9312987494   -0.2211542957    0.5002700191         -0.2541
C385       C    1.0322061564   -0.2929674123    0.5006109041         -0.2539
C386       C    1.0324899570   -0.3314039755    0.5005246261         -0.2541
C387       C    1.0000000000   -0.3517347649    0.5000000000          0.7454
C388       C    0.9671407594   -0.3314943005    0.4995857659           0.745
C389       C    0.9673403517   -0.2926451633    0.4995551727          0.7451
H390       H    1.0605222190   -0.3457570493    0.5009255934         -0.2537
H391       H    1.0612936806   -0.2829191622    0.5013324371         -0.2532
H392       H    0.9383269421   -0.2816494595    0.4990452119          0.7446
H393       H    0.9394078300   -0.3464375666    0.4991924455          0.7446
N394       N    1.0970053313   -0.2243139543    0.4973994030          0.7432
C353       C    1.0000000000    0.1482652351    0.5000000000         -0.2542
C354       C    0.9658034819    0.1674606563    0.5000061820         -0.2542
C355       C    0.9662406824    0.2074200116    0.4998656462         -0.2544
C356       C    0.9993420170    0.2298655238    0.4999829473         -0.2544
C357       C    1.0322656200    0.2081022876    0.5000285055         -0.2543
C358       C    1.0320155945    0.1695791011    0.4999986418         -0.2542
C359       C    1.0000150710    0.2703799915    0.5000174506         -0.2544
C360       C    0.9350826708    0.2158575019    0.4995006644          0.7452
Cl361     Cl    0.9226590466    0.1394806924    0.5002211967         -0.2539
H362       H    1.0600861452    0.1553092762    0.5000310918         -0.2542
F363       F    1.0687012506    0.2211542957    0.5002700191         -0.2541
C364       C    0.9677938436    0.2929674123    0.5006109041         -0.2539
C365       C    0.9675100430    0.3314039755    0.5005246261         -0.2541
C366       C    1.0000000000    0.3517347649    0.5000000000          0.7454
C367       C    1.0328592406    0.3314943005    0.4995857659           0.745
C368       C    1.0326596483    0.2926451633    0.4995551727          0.7451
H369       H    0.9394777810    0.3457570493    0.5009255934         -0.2537
H370       H    0.9387063194    0.2829191622    0.5013324371         -0.2532
H371       H    1.0616730579    0.2816494595    0.4990452119          0.7446
H372       H    1.0605921700    0.3464375666    0.4991924455          0.7446
N373       N    0.9029946687    0.2243139543    0.4973994030          0.7432
C332       C    0.8517347649   -0.0000000000    0.5000000000         -0.2542
C333       C    0.8325393437   -0.0311301887    0.4858467941         -0.2542
C334       C    0.7925799884   -0.0306740359    0.4858998902         -0.2544
C335       C    0.7701344762   -0.0005918733    0.4997120443         -0.2544
C336       C    0.7918977124    0.0293582125    0.5133853055         -0.2543
C337       C    0.8304208989    0.0291429899    0.5132546004         -0.2542
C338       C    0.7296200085    0.0000064932    0.5000221246         -0.2544
C339       C    0.7841424981   -0.0588847242    0.4726669023          0.7452
Cl340     Cl    0.8605193076   -0.0704917498    0.4681788560         -0.2539
H341       H    0.8446907238    0.0546809769    0.5249065568         -0.2542
F342       F    0.7788457043    0.0624240130    0.5286910672         -0.2541
C343       C    0.7070325877   -0.0295688286    0.4872213423         -0.2539
C344       C    0.6685960245   -0.0297914373    0.4870253015         -0.2541
C345       C    0.6482652351   -0.0000000000    0.5000000000          0.7454
C346       C    0.6685056995    0.0300818733    0.5132280830           0.745
C347       C    0.7073548367    0.0299128599    0.5131175955          0.7451
H348       H    0.6542429507   -0.0554740252    0.4757837195         -0.2537
H349       H    0.7170808378   -0.0563447046    0.4758346336         -0.2532
H350       H    0.7183505405    0.0565336726    0.5246662027          0.7446
H351       H    0.6535624334    0.0554888255    0.5243526890          0.7446
N352       N    0.7756860457   -0.0872230485    0.4574683973          0.7432
C311       C    1.1482652351   -0.0000000000    0.5000000000         -0.2542
C312       C    1.1674606563    0.0032314600    0.5340434950         -0.2542
C313       C    1.2074200116    0.0033299718    0.5335949529         -0.2544
C314       C    1.2298655238    0.0000792718    0.5006534129         -0.2544
C315       C    1.2081022876   -0.0030831806    0.4678820137         -0.2543
C316       C    1.1695791011   -0.0030297794    0.4681280887         -0.2542
C317       C    1.2703799915   -0.0000187991    0.4999866488         -0.2544
C318       C    1.2158575019    0.0066432526    0.5645784497          0.7452
Cl319     Cl    1.1394806924    0.0071021848    0.5770144855         -0.2539
H320       H    1.1553092762   -0.0057197114    0.4401867012         -0.2542
F321       F    1.2211542957   -0.0067732154    0.4316329151         -0.2541
C322       C    1.2929674123    0.0024410133    0.5321193270         -0.2539
C323       C    1.3314039755    0.0025537731    0.5323936843         -0.2541
C324       C    1.3517347649   -0.0000000000    0.5000000000          0.7454
C325       C    1.3314943005   -0.0026986318    0.4672491425           0.745
C326       C    1.2926451633   -0.0026492792    0.4674449418          0.7451
H327       H    1.3457570493    0.0048086096    0.5603379896         -0.2537
H328       H    1.2829191622    0.0044766328    0.5611445044         -0.2532
H329       H    1.2816494595   -0.0048885037    0.4385135769          0.7446
H330       H    1.3464375666   -0.0049327410    0.4396035491          0.7446
N331       N    1.2243139543    0.0117730620    0.5963233742          0.7432
C290       C   -0.0000000000   -0.3517347649    0.0000000000         -0.2542
C291       C    0.0057763250   -0.3325393437   -0.0337051325         -0.2542
C292       C    0.0058409092   -0.2925799884   -0.0332504639         -0.2544
C293       C    0.0001280680   -0.2701344762   -0.0006456245         -0.2544
C294       C   -0.0054840102   -0.2918977124    0.0317961739         -0.2543
C295       C   -0.0054122988   -0.3304208989    0.0315547986         -0.2542
C296       C   -0.0000197477   -0.2296200085    0.0000119032         -0.2544
C297       C    0.0114692609   -0.2841424981   -0.0638980831          0.7452
Cl298     Cl    0.0128598616   -0.3605193076   -0.0762646442         -0.2539
H299       H   -0.0101908366   -0.3446907238    0.0592156454         -0.2542
F300       F   -0.0118830840   -0.2788457043    0.0676662919         -0.2541
C301       C    0.0048437532   -0.2070325877   -0.0318456868         -0.2539
C302       C    0.0049767777   -0.1685960245   -0.0321108117         -0.2541
C303       C   -0.0000000000   -0.1482652351    0.0000000000          0.7454
C304       C   -0.0051480236   -0.1685056995    0.0324561109           0.745
C305       C   -0.0050841211   -0.2073548367    0.0322645659          0.7451
H306       H    0.0093216651   -0.1542429507   -0.0598072092         -0.2537
H307       H    0.0090511293   -0.2170808378   -0.0606363564         -0.2532
H308       H   -0.0094874905   -0.2183505405    0.0609464127          0.7446
H309       H   -0.0094498325   -0.1535624334    0.0598561933          0.7446
N310       N    0.0189661451   -0.2756860457   -0.0951687068          0.7432
C269       C    0.0000000000    0.1482652351    0.0000000000         -0.2542
C270       C   -0.0072078573    0.1674606563   -0.0334282617         -0.2542
C271       C   -0.0069783987    0.2074200116   -0.0330304636         -0.2544
C272       C   -0.0001219015    0.2298655238   -0.0006468172         -0.2544
C273       C    0.0067672991    0.2081022876    0.0315479747         -0.2543
C274       C    0.0067438375    0.1695791011    0.0312972674         -0.2542
C275       C   -0.0000138853    0.2703799915    0.0000184081         -0.2544
C276       C   -0.0131835047    0.2158575019   -0.0635665334          0.7452
Cl277     Cl   -0.0165043021    0.1394806924   -0.0755597777         -0.2539
H278       H    0.0126237956    0.1553092762    0.0587450900         -0.2542
F279       F    0.0142045750    0.2211542957    0.0672172953         -0.2541
C280       C   -0.0073798451    0.2929674123   -0.0313551846         -0.2539
C281       C   -0.0073552708    0.3314039755   -0.0316507904         -0.2541
C282       C    0.0000000000    0.3517347649    0.0000000000          0.7454
C283       C    0.0073251260    0.3314943005    0.0320350404           0.745
C284       C    0.0073129988    0.2926451633    0.0318334815          0.7451
H285       H   -0.0136508619    0.3457570493   -0.0589699049         -0.2537
H286       H   -0.0142110514    0.2829191622   -0.0596383826         -0.2532
H287       H    0.0139217694    0.2816494595    0.0600887846          0.7446
H288       H    0.0135502021    0.3464375666    0.0590631462          0.7446
N289       N   -0.0178871289    0.2243139543   -0.0953773979          0.7432
C248       C   -0.1482652351   -0.0000000000    0.0000000000         -0.2542
C249       C   -0.1674606563   -0.0292683410    0.0176851944         -0.2542
C250       C   -0.2074200116   -0.0289667643    0.0173388620         -0.2544
C251       C   -0.2298655238   -0.0005720367    0.0003255863         -0.2544
C252       C   -0.2081022876    0.0276334645   -0.0166572111         -0.2543
C253       C   -0.1695791011    0.0274040079   -0.0165535085         -0.2542
C254       C   -0.2703799915    0.0000219226    0.0000071455         -0.2544
C255       C   -0.2158575019   -0.0558260995    0.0331354128          0.7452
Cl256     Cl   -0.1394806924   -0.0660879523    0.0401752979         -0.2539
H257       H   -0.1553092762    0.0514486162   -0.0310384553         -0.2542
F258       F   -0.2211542957    0.0589465020   -0.0352880241         -0.2541
C259       C   -0.2929674123   -0.0272519844    0.0171737899         -0.2539
C260       C   -0.3314039755   -0.0275395186    0.0172466651         -0.2541
C261       C   -0.3517347649   -0.0000000000    0.0000000000          0.7454
C262       C   -0.3314943005    0.0279126916   -0.0173430946           0.745
C263       C   -0.2926451633    0.0277260276   -0.0172660908          0.7451
H264       H   -0.3457570493   -0.0513272719    0.0320828127         -0.2537
H265       H   -0.2829191622   -0.0517772858    0.0328299153         -0.2532
H266       H   -0.2816494595    0.0522972732   -0.0327027968          0.7446
H267       H   -0.3464375666    0.0514481757   -0.0320179391          0.7446
N268       N   -0.2243139543   -0.0843791598    0.0479265563          0.7432
C227       C    0.1482652351   -0.0000000000    0.0000000000         -0.2542
C228       C    0.1674606563    0.0195668236   -0.0280453437         -0.2542
C229       C    0.2074200116    0.0192014566   -0.0277671323         -0.2544
C230       C    0.2298655238    0.0003624051   -0.0005494497         -0.2544
C231       C    0.2081022876   -0.0184338223    0.0264814131         -0.2543
C232       C    0.1695791011   -0.0183152929    0.0262592524         -0.2542
C233       C    0.2703799915    0.0000056922    0.0000223441         -0.2544
C234       C    0.2158575019    0.0367256967   -0.0535325338          0.7452
Cl235     Cl    0.1394806924    0.0444234977   -0.0633105430         -0.2539
H236       H    0.1553092762   -0.0343461353    0.0493020162         -0.2542
F237       F    0.2211542957   -0.0390783399    0.0565050271         -0.2541
C238       C    0.2929674123    0.0189242674   -0.0260668721         -0.2539
C239       C    0.3314039755    0.0190158450   -0.0263490072         -0.2541
C240       C    0.3517347649   -0.0000000000    0.0000000000          0.7454
C241       C    0.3314943005   -0.0191365433    0.0267150518           0.745
C242       C    0.2926451633   -0.0190474620    0.0265338404          0.7451
H243       H    0.3457570493    0.0353802849   -0.0491124338         -0.2537
H244       H    0.2829191622    0.0361552952   -0.0495124762         -0.2532
H245       H    0.2816494595   -0.0360625563    0.0500396815          0.7446
H246       H    0.3464375666   -0.0353234811    0.0492373323          0.7446
N247       N    0.2243139543    0.0533577860   -0.0810539578          0.7432
C206       C    0.0000000000    0.0000000000   -0.3517347649         -0.2542
C207       C   -0.0008149272    0.0341868071   -0.3325393437         -0.2542
C208       C   -0.0006640909    0.0337530525   -0.2925799884         -0.2544
C209       C    0.0000014867    0.0006582023   -0.2701344762         -0.2544
C210       C    0.0007345837   -0.0322572695   -0.2918977124         -0.2543
C211       C    0.0007585260   -0.0320066076   -0.3304208989         -0.2542
C212       C   -0.0000170893   -0.0000154795   -0.2296200085         -0.2544
C213       C   -0.0010360974    0.0649109811   -0.2841424981          0.7452
Cl214     Cl   -0.0020502467    0.0773140898   -0.3605193076         -0.2539
H215       H    0.0013899529   -0.0600700744   -0.3446907238         -0.2542
F216       F    0.0013548395   -0.0686884208   -0.2788457043         -0.2541
C217       C   -0.0013724082    0.0321827005   -0.2070325877         -0.2539
C218       C   -0.0012928662    0.0324684622   -0.1685960245         -0.2541
C219       C    0.0000000000    0.0000000000   -0.1482652351          0.7454
C220       C    0.0011912386   -0.0328402533   -0.1685056995           0.745
C221       C    0.0012171029   -0.0326399932   -0.2073548367          0.7451
H222       H   -0.0023566837    0.0604834006   -0.1542429507         -0.2537
H223       H   -0.0027816586    0.0612450246   -0.2170808378         -0.2532
H224       H    0.0024130875   -0.0616332273   -0.2183505405          0.7446
H225       H    0.0022403322   -0.0605561237   -0.1535624334          0.7446
N226       N    0.0003056956    0.0970397030   -0.2756860457          0.7432
C185       C   -0.0000000000    0.0000000000    0.1482652351         -0.2542
C186       C    0.0334847326   -0.0069407902    0.1674606563         -0.2542
C187       C    0.0330280992   -0.0069895807    0.2074200116         -0.2544
C188       C    0.0006407991   -0.0001503630    0.2298655238         -0.2544
C189       C   -0.0315870496    0.0065825027    0.2081022876         -0.2543
C190       C   -0.0313483041    0.0065024702    0.1695791011         -0.2542
C191       C   -0.0000112118    0.0000201483    0.2703799915         -0.2544
C192       C    0.0634622821   -0.0136765389    0.2158575019          0.7452
Cl193     Cl    0.0757732302   -0.0154948247    0.1394806924         -0.2539
H194       H   -0.0588269558    0.0122366288    0.1553092762         -0.2542
F195       F   -0.0672138883    0.0142206877    0.2211542957         -0.2541
C196       C    0.0316587187   -0.0059443458    0.2929674123         -0.2539
C197       C    0.0319190748   -0.0060864774    0.3314039755         -0.2541
C198       C   -0.0000000000    0.0000000000    0.3517347649          0.7454
C199       C   -0.0322582327    0.0062695856    0.3314943005           0.745
C200       C   -0.0320690170    0.0061990842    0.2926451633          0.7451
H201       H    0.0594482824   -0.0113884778    0.3457570493         -0.2537
H202       H    0.0602863062   -0.0111468357    0.2829191622         -0.2532
H203       H   -0.0605810557    0.0115936788    0.2816494595          0.7446
H204       H   -0.0594927959    0.0115182656    0.3464375666          0.7446
N205       N    0.0944543479   -0.0222524956    0.2243139543          0.7432
loop_
_geom_bond_atom_site_label_1
_geom_bond_atom_site_label_2
_geom_bond_distance
_geom_bond_site_symmetry_2
_ccdc_geom_bond_type
Zn1          O5 1.942       .   S
Zn1          O6 1.922       .   S
Zn1         O10 1.922       .   S
Zn1         O17 1.922       .   S
Zn2          O5 1.942       .   S
Zn2          O7 1.922       .   S
Zn2          O9 1.922       .   S
Zn2         O13 1.922       .   S
Zn3          O5 1.942       .   S
Zn3          O8 1.922       .   S
Zn3         O11 1.922       .   S
Zn3         O14 1.922       .   S
Zn4          O5 1.942       .   S
Zn4         O12 1.922       .   S
Zn4         O15 1.922       .   S
Zn4         O16 1.922       .   S
O6          C18 1.304       .   A
O7          C19 1.304       .   A
O8          C20 1.304       .   A
O9          C18 1.304       .   A
O10         C20 1.304       .   A
O11         C19 1.304       .   A
O12         C21 1.304       .   A
O13         C22 1.304       .   A
O14         C21 1.304       .   A
O15         C22 1.304       .   A
O16         C23 1.304       .   A
O17         C23 1.304       .   A
C18        C185 1.540       .   S
C19        C227 1.540       .   S
C20        C303 1.540       .   S
C21        C219 1.540       .   S
C22        C269 1.540       .   S
C23        C248 1.540       .   S
Zn24        O28 1.942       .   S
Zn24        O29 1.922       .   S
Zn24        O33 1.922       .   S
Zn24        O40 1.922       .   S
Zn25        O28 1.942       .   S
Zn25        O30 1.922       .   S
Zn25        O32 1.922       .   S
Zn25        O36 1.922       .   S
Zn26        O28 1.942       .   S
Zn26        O31 1.922       .   S
Zn26        O34 1.922       .   S
Zn26        O37 1.922       .   S
Zn27        O28 1.942       .   S
Zn27        O35 1.922       .   S
Zn27        O38 1.922       .   S
Zn27        O39 1.922       .   S
O29         C41 1.304       .   A
O30         C42 1.304       .   A
O31         C43 1.304       .   A
O32         C41 1.304       .   A
O33         C43 1.304       .   A
O34         C42 1.304       .   A
O35         C44 1.304       .   A
O36         C45 1.304       .   A
O37         C44 1.304       .   A
O38         C45 1.304       .   A
O39         C46 1.304       .   A
O40         C46 1.304       .   A
C41        C198 1.540   1_655   S
C42        C311 1.540       .   S
C43        C353 1.540       .   S
C44        C206 1.540   1_656   S
C45        C374 1.540       .   S
C46        C332 1.540       .   S
Zn47        O51 1.942       .   S
Zn47        O52 1.922       .   S
Zn47        O56 1.922       .   S
Zn47        O63 1.922       .   S
Zn48        O51 1.942       .   S
Zn48        O53 1.922       .   S
Zn48        O55 1.922       .   S
Zn48        O59 1.922       .   S
Zn49        O51 1.942       .   S
Zn49        O54 1.922       .   S
Zn49        O57 1.922       .   S
Zn49        O60 1.922       .   S
Zn50        O51 1.942       .   S
Zn50        O58 1.922       .   S
Zn50        O61 1.922       .   S
Zn50        O62 1.922       .   S
O52         C64 1.304       .   A
O53         C65 1.304       .   A
O54         C66 1.304       .   A
O55         C64 1.304       .   A
O56         C66 1.304       .   A
O57         C65 1.304       .   A
O58         C67 1.304       .   A
O59         C68 1.304       .   A
O60         C67 1.304       .   A
O61         C68 1.304       .   A
O62         C69 1.304       .   A
O63         C69 1.304       .   A
C64        C290 1.540   1_665   S
C65        C471 1.540       .   S
C66        C416 1.540       .   S
C67        C282 1.540   1_655   S
C68        C395 1.540       .   S
C69        C437 1.540       .   S
Zn70        O74 1.942       .   S
Zn70        O75 1.922       .   S
Zn70        O79 1.922       .   S
Zn70        O86 1.922       .   S
Zn71        O74 1.942       .   S
Zn71        O76 1.922       .   S
Zn71        O78 1.922       .   S
Zn71        O82 1.922       .   S
Zn72        O74 1.942       .   S
Zn72        O77 1.922       .   S
Zn72        O80 1.922       .   S
Zn72        O83 1.922       .   S
Zn73        O74 1.942       .   S
Zn73        O81 1.922       .   S
Zn73        O84 1.922       .   S
Zn73        O85 1.922       .   S
O75         C87 1.304       .   A
O76         C88 1.304       .   A
O77         C89 1.304       .   A
O78         C87 1.304       .   A
O79         C89 1.304       .   A
O80         C88 1.304       .   A
O81         C90 1.304       .   A
O82         C91 1.304       .   A
O83         C90 1.304       .   A
O84         C91 1.304       .   A
O85         C92 1.304       .   A
O86         C92 1.304       .   A
C87        C366 1.540       .   S
C88        C408 1.540       .   S
C89        C500 1.540       .   S
C90        C387 1.540   1_565   S
C91        C479 1.540       .   S
C92        C429 1.540   1_556   S
Zn93        O97 1.942       .   S
Zn93        O98 1.922       .   S
Zn93       O102 1.922       .   S
Zn93       O109 1.922       .   S
Zn94        O97 1.942       .   S
Zn94        O99 1.922       .   S
Zn94       O101 1.922       .   S
Zn94       O105 1.922       .   S
Zn95        O97 1.942       .   S
Zn95       O100 1.922       .   S
Zn95       O103 1.922       .   S
Zn95       O106 1.922       .   S
Zn96        O97 1.942       .   S
Zn96       O104 1.922       .   S
Zn96       O107 1.922       .   S
Zn96       O108 1.922       .   S
O98        C110 1.304       .   A
O99        C111 1.304       .   A
O100       C112 1.304       .   A
O101       C110 1.304       .   A
O102       C112 1.304       .   A
O103       C111 1.304       .   A
O104       C113 1.304       .   A
O105       C114 1.304       .   A
O106       C113 1.304       .   A
O107       C114 1.304       .   A
O108       C115 1.304       .   A
O109       C115 1.304       .   A
C110       C240 1.540   1_565   S
C111       C521 1.540       .   S
C112       C584 1.540       .   S
C113       C261 1.540   1_665   S
C114       C563 1.540       .   S
C115       C542 1.540       .   S
Zn116      O120 1.942       .   S
Zn116      O121 1.922       .   S
Zn116      O125 1.922       .   S
Zn116      O132 1.922       .   S
Zn117      O120 1.942       .   S
Zn117      O122 1.922       .   S
Zn117      O124 1.922       .   S
Zn117      O128 1.922       .   S
Zn118      O120 1.942       .   S
Zn118      O123 1.922       .   S
Zn118      O126 1.922       .   S
Zn118      O129 1.922       .   S
Zn119      O120 1.942       .   S
Zn119      O127 1.922       .   S
Zn119      O130 1.922       .   S
Zn119      O131 1.922       .   S
O121       C133 1.304       .   A
O122       C134 1.304       .   A
O123       C135 1.304       .   A
O124       C133 1.304       .   A
O125       C135 1.304       .   A
O126       C134 1.304       .   A
O127       C136 1.304       .   A
O128       C137 1.304       .   A
O129       C136 1.304       .   A
O130       C137 1.304       .   A
O131       C138 1.304       .   A
O132       C138 1.304       .   A
C133       C324 1.540   1_465   S
C134       C534 1.540       .   S
C135       C605 1.540       .   S
C136       C345 1.540   1_565   S
C137       C639 1.540       .   S
C138       C555 1.540   1_556   S
Zn139      O143 1.942       .   S
Zn139      O144 1.922       .   S
Zn139      O148 1.922       .   S
Zn139      O155 1.922       .   S
Zn140      O143 1.942       .   S
Zn140      O145 1.922       .   S
Zn140      O147 1.922       .   S
Zn140      O151 1.922       .   S
Zn141      O143 1.942       .   S
Zn141      O146 1.922       .   S
Zn141      O149 1.922       .   S
Zn141      O152 1.922       .   S
Zn142      O143 1.942       .   S
Zn142      O150 1.922       .   S
Zn142      O153 1.922       .   S
Zn142      O154 1.922       .   S
O144       C156 1.304       .   A
O145       C157 1.304       .   A
O146       C158 1.304       .   A
O147       C156 1.304       .   A
O148       C158 1.304       .   A
O149       C157 1.304       .   A
O150       C159 1.304       .   A
O151       C160 1.304       .   A
O152       C159 1.304       .   A
O153       C160 1.304       .   A
O154       C161 1.304       .   A
O155       C161 1.304       .   A
C156       C450 1.540   1_455   S
C157       C576 1.540   1_545   S
C158       C668 1.540       .   S
C159       C458 1.540       .   S
C160       C647 1.540       .   S
C161       C597 1.540       .   S
Zn162      O166 1.942       .   S
Zn162      O167 1.922       .   S
Zn162      O171 1.922       .   S
Zn162      O178 1.922       .   S
Zn163      O166 1.942       .   S
Zn163      O168 1.922       .   S
Zn163      O170 1.922       .   S
Zn163      O174 1.922       .   S
Zn164      O166 1.942       .   S
Zn164      O169 1.922       .   S
Zn164      O172 1.922       .   S
Zn164      O175 1.922       .   S
Zn165      O166 1.942       .   S
Zn165      O173 1.922       .   S
Zn165      O176 1.922       .   S
Zn165      O177 1.922       .   S
O167       C179 1.304       .   A
O168       C180 1.304       .   A
O169       C181 1.304       .   A
O170       C179 1.304       .   A
O171       C181 1.304       .   A
O172       C180 1.304       .   A
O173       C182 1.304       .   A
O174       C183 1.304       .   A
O175       C182 1.304       .   A
O176       C183 1.304       .   A
O177       C184 1.304       .   A
O178       C184 1.304       .   A
C179       C492 1.540   1_455   S
C180       C618 1.540   1_545   S
C181       C660 1.540       .   S
C182       C513 1.540       .   S
C183       C681 1.540   1_556   S
C184       C626 1.540       .   S
C668       C669 0.037       .   A
C668       C673 0.036       .   A
C669       C670 0.037       .   A
C669      Cl676 0.048       .   A
C670       C671 0.037       .   A
C670       C675 0.030       .   A
C671       C672 0.037       .   A
C671       C674 0.038       .   A
C672       C673 0.036       .   A
C672       F678 0.036       .   A
C673       H677 0.029       .   A
C674       C679 0.037       .   A
C674       C683 0.037       .   A
C675       N688 0.031       .   A
C679       C680 0.036       .   A
C679       H685 0.029       .   A
C680       C681 0.036       .   A
C680       H684 0.029       .   A
C681       C682 0.036       .   A
C682       C683 0.036       .   A
C682       H687 0.029       .   A
C683       H686 0.029       .   A
C647       C648 0.037       .   A
C647       C652 0.036       .   A
C648       C649 0.037       .   A
C648      Cl655 0.048       .   A
C649       C650 0.037       .   A
C649       C654 0.030       .   A
C650       C651 0.037       .   A
C650       C653 0.038       .   A
C651       C652 0.036       .   A
C651       F657 0.036       .   A
C652       H656 0.029       .   A
C653       C658 0.037       .   A
C653       C662 0.037       .   A
C654       N667 0.031       .   A
C658       C659 0.036       .   A
C658       H664 0.029       .   A
C659       C660 0.036       .   A
C659       H663 0.029       .   A
C660       C661 0.036       .   A
C661       C662 0.036       .   A
C661       H666 0.029       .   A
C662       H665 0.029       .   A
C626       C627 0.037       .   A
C626       C631 0.036       .   A
C627       C628 0.037       .   A
C627      Cl634 0.048       .   A
C628       C629 0.037       .   A
C628       C633 0.030       .   A
C629       C630 0.037       .   A
C629       C632 0.038       .   A
C630       C631 0.036       .   A
C630       F636 0.036       .   A
C631       H635 0.029       .   A
C632       C637 0.037       .   A
C632       C641 0.037       .   A
C633       N646 0.031       .   A
C637       C638 0.036       .   A
C637       H643 0.029       .   A
C638       C639 0.036       .   A
C638       H642 0.029       .   A
C639       C640 0.036       .   A
C640       C641 0.036       .   A
C640       H645 0.029       .   A
C641       H644 0.029       .   A
C605       C606 0.037       .   A
C605       C610 0.036       .   A
C606       C607 0.037       .   A
C606      Cl613 0.048       .   A
C607       C608 0.037       .   A
C607       C612 0.030       .   A
C608       C609 0.037       .   A
C608       C611 0.038       .   A
C609       C610 0.036       .   A
C609       F615 0.036       .   A
C610       H614 0.029       .   A
C611       C616 0.037       .   A
C611       C620 0.037       .   A
C612       N625 0.031       .   A
C616       C617 0.036       .   A
C616       H622 0.029       .   A
C617       C618 0.036       .   A
C617       H621 0.029       .   A
C618       C619 0.036       .   A
C619       C620 0.036       .   A
C619       H624 0.029       .   A
C620       H623 0.029       .   A
C584       C585 0.037       .   A
C584       C589 0.036       .   A
C585       C586 0.037       .   A
C585      Cl592 0.048       .   A
C586       C587 0.037       .   A
C586       C591 0.030       .   A
C587       C588 0.037       .   A
C587       C590 0.038       .   A
C588       C589 0.036       .   A
C588       F594 0.036       .   A
C589       H593 0.029       .   A
C590       C595 0.037       .   A
C590       C599 0.037       .   A
C591       N604 0.031       .   A
C595       C596 0.036       .   A
C595       H601 0.029       .   A
C596       C597 0.036       .   A
C596       H600 0.029       .   A
C597       C598 0.036       .   A
C598       C599 0.036       .   A
C598       H603 0.029       .   A
C599       H602 0.029       .   A
C563       C564 0.037       .   A
C563       C568 0.036       .   A
C564       C565 0.037       .   A
C564      Cl571 0.048       .   A
C565       C566 0.037       .   A
C565       C570 0.030       .   A
C566       C567 0.037       .   A
C566       C569 0.038       .   A
C567       C568 0.036       .   A
C567       F573 0.036       .   A
C568       H572 0.029       .   A
C569       C574 0.037       .   A
C569       C578 0.037       .   A
C570       N583 0.031       .   A
C574       C575 0.036       .   A
C574       H580 0.029       .   A
C575       C576 0.036       .   A
C575       H579 0.029       .   A
C576       C577 0.036       .   A
C577       C578 0.036       .   A
C577       H582 0.029       .   A
C578       H581 0.029       .   A
C542       C543 0.037       .   A
C542       C547 0.036       .   A
C543       C544 0.037       .   A
C543      Cl550 0.048       .   A
C544       C545 0.037       .   A
C544       C549 0.030       .   A
C545       C546 0.037       .   A
C545       C548 0.038       .   A
C546       C547 0.036       .   A
C546       F552 0.036       .   A
C547       H551 0.029       .   A
C548       C553 0.037       .   A
C548       C557 0.037       .   A
C549       N562 0.031       .   A
C553       C554 0.036       .   A
C553       H559 0.029       .   A
C554       C555 0.036       .   A
C554       H558 0.029       .   A
C555       C556 0.036       .   A
C556       C557 0.036       .   A
C556       H561 0.029       .   A
C557       H560 0.029       .   A
C521       C522 0.037       .   A
C521       C526 0.036       .   A
C522       C523 0.037       .   A
C522      Cl529 0.048       .   A
C523       C524 0.037       .   A
C523       C528 0.030       .   A
C524       C525 0.037       .   A
C524       C527 0.038       .   A
C525       C526 0.036       .   A
C525       F531 0.036       .   A
C526       H530 0.029       .   A
C527       C532 0.037       .   A
C527       C536 0.037       .   A
C528       N541 0.031       .   A
C532       C533 0.036       .   A
C532       H538 0.029       .   A
C533       C534 0.036       .   A
C533       H537 0.029       .   A
C534       C535 0.036       .   A
C535       C536 0.036       .   A
C535       H540 0.029       .   A
C536       H539 0.029       .   A
C500       C501 0.037       .   A
C500       C505 0.036       .   A
C501       C502 0.037       .   A
C501      Cl508 0.048       .   A
C502       C503 0.037       .   A
C502       C507 0.030       .   A
C503       C504 0.037       .   A
C503       C506 0.038       .   A
C504       C505 0.036       .   A
C504       F510 0.036       .   A
C505       H509 0.029       .   A
C506       C511 0.037       .   A
C506       C515 0.037       .   A
C507       N520 0.031       .   A
C511       C512 0.036       .   A
C511       H517 0.029       .   A
C512       C513 0.036       .   A
C512       H516 0.029       .   A
C513       C514 0.036       .   A
C514       C515 0.036       .   A
C514       H519 0.029       .   A
C515       H518 0.029       .   A
C479       C480 0.037       .   A
C479       C484 0.036       .   A
C480       C481 0.037       .   A
C480      Cl487 0.048       .   A
C481       C482 0.037       .   A
C481       C486 0.030       .   A
C482       C483 0.037       .   A
C482       C485 0.038       .   A
C483       C484 0.036       .   A
C483       F489 0.036       .   A
C484       H488 0.029       .   A
C485       C490 0.037       .   A
C485       C494 0.037       .   A
C486       N499 0.031       .   A
C490       C491 0.036       .   A
C490       H496 0.029       .   A
C491       C492 0.036       .   A
C491       H495 0.029       .   A
C492       C493 0.036       .   A
C493       C494 0.036       .   A
C493       H498 0.029       .   A
C494       H497 0.029       .   A
C458       C459 0.037       .   A
C458       C463 0.036       .   A
C459       C460 0.037       .   A
C459      Cl466 0.048       .   A
C460       C461 0.037       .   A
C460       C465 0.030       .   A
C461       C462 0.037       .   A
C461       C464 0.038       .   A
C462       C463 0.036       .   A
C462       F468 0.036       .   A
C463       H467 0.029       .   A
C464       C469 0.037       .   A
C464       C473 0.037       .   A
C465       N478 0.031       .   A
C469       C470 0.036       .   A
C469       H475 0.029       .   A
C470       C471 0.036       .   A
C470       H474 0.029       .   A
C471       C472 0.036       .   A
C472       C473 0.036       .   A
C472       H477 0.029       .   A
C473       H476 0.029       .   A
C437       C438 0.037       .   A
C437       C442 0.036       .   A
C438       C439 0.037       .   A
C438      Cl445 0.048       .   A
C439       C440 0.037       .   A
C439       C444 0.030       .   A
C440       C441 0.037       .   A
C440       C443 0.038       .   A
C441       C442 0.036       .   A
C441       F447 0.036       .   A
C442       H446 0.029       .   A
C443       C448 0.037       .   A
C443       C452 0.037       .   A
C444       N457 0.031       .   A
C448       C449 0.036       .   A
C448       H454 0.029       .   A
C449       C450 0.036       .   A
C449       H453 0.029       .   A
C450       C451 0.036       .   A
C451       C452 0.036       .   A
C451       H456 0.029       .   A
C452       H455 0.029       .   A
C416       C417 0.037       .   A
C416       C421 0.036       .   A
C417       C418 0.037       .   A
C417      Cl424 0.048       .   A
C418       C419 0.037       .   A
C418       C423 0.030       .   A
C419       C420 0.037       .   A
C419       C422 0.038       .   A
C420       C421 0.036       .   A
C420       F426 0.036       .   A
C421       H425 0.029       .   A
C422       C427 0.037       .   A
C422       C431 0.037       .   A
C423       N436 0.031       .   A
C427       C428 0.036       .   A
C427       H433 0.029       .   A
C428       C429 0.036       .   A
C428       H432 0.029       .   A
C429       C430 0.036       .   A
C430       C431 0.036       .   A
C430       H435 0.029       .   A
C431       H434 0.029       .   A
C395       C396 0.037       .   A
C395       C400 0.036       .   A
C396       C397 0.037       .   A
C396      Cl403 0.048       .   A
C397       C398 0.037       .   A
C397       C402 0.030       .   A
C398       C399 0.037       .   A
C398       C401 0.038       .   A
C399       C400 0.036       .   A
C399       F405 0.036       .   A
C400       H404 0.029       .   A
C401       C406 0.037       .   A
C401       C410 0.037       .   A
C402       N415 0.031       .   A
C406       C407 0.036       .   A
C406       H412 0.029       .   A
C407       C408 0.036       .   A
C407       H411 0.029       .   A
C408       C409 0.036       .   A
C409       C410 0.036       .   A
C409       H414 0.029       .   A
C410       H413 0.029       .   A
C374       C375 0.037       .   A
C374       C379 0.036       .   A
C375       C376 0.037       .   A
C375      Cl382 0.048       .   A
C376       C377 0.037       .   A
C376       C381 0.030       .   A
C377       C378 0.037       .   A
C377       C380 0.038       .   A
C378       C379 0.036       .   A
C378       F384 0.036       .   A
C379       H383 0.029       .   A
C380       C385 0.037       .   A
C380       C389 0.037       .   A
C381       N394 0.031       .   A
C385       C386 0.036       .   A
C385       H391 0.029       .   A
C386       C387 0.036       .   A
C386       H390 0.029       .   A
C387       C388 0.036       .   A
C388       C389 0.036       .   A
C388       H393 0.029       .   A
C389       H392 0.029       .   A
C353       C354 0.037       .   A
C353       C358 0.036       .   A
C354       C355 0.037       .   A
C354      Cl361 0.048       .   A
C355       C356 0.037       .   A
C355       C360 0.030       .   A
C356       C357 0.037       .   A
C356       C359 0.038       .   A
C357       C358 0.036       .   A
C357       F363 0.036       .   A
C358       H362 0.029       .   A
C359       C364 0.037       .   A
C359       C368 0.037       .   A
C360       N373 0.031       .   A
C364       C365 0.036       .   A
C364       H370 0.029       .   A
C365       C366 0.036       .   A
C365       H369 0.029       .   A
C366       C367 0.036       .   A
C367       C368 0.036       .   A
C367       H372 0.029       .   A
C368       H371 0.029       .   A
C332       C333 0.037       .   A
C332       C337 0.036       .   A
C333       C334 0.037       .   A
C333      Cl340 0.048       .   A
C334       C335 0.037       .   A
C334       C339 0.030       .   A
C335       C336 0.037       .   A
C335       C338 0.038       .   A
C336       C337 0.036       .   A
C336       F342 0.036       .   A
C337       H341 0.029       .   A
C338       C343 0.037       .   A
C338       C347 0.037       .   A
C339       N352 0.031       .   A
C343       C344 0.036       .   A
C343       H349 0.029       .   A
C344       C345 0.036       .   A
C344       H348 0.029       .   A
C345       C346 0.036       .   A
C346       C347 0.036       .   A
C346       H351 0.029       .   A
C347       H350 0.029       .   A
C311       C312 0.037       .   A
C311       C316 0.036       .   A
C312       C313 0.037       .   A
C312      Cl319 0.048       .   A
C313       C314 0.037       .   A
C313       C318 0.030       .   A
C314       C315 0.037       .   A
C314       C317 0.038       .   A
C315       C316 0.036       .   A
C315       F321 0.036       .   A
C316       H320 0.029       .   A
C317       C322 0.037       .   A
C317       C326 0.037       .   A
C318       N331 0.031       .   A
C322       C323 0.036       .   A
C322       H328 0.029       .   A
C323       C324 0.036       .   A
C323       H327 0.029       .   A
C324       C325 0.036       .   A
C325       C326 0.036       .   A
C325       H330 0.029       .   A
C326       H329 0.029       .   A
C290       C291 0.037       .   A
C290       C295 0.036       .   A
C291       C292 0.037       .   A
C291      Cl298 0.048       .   A
C292       C293 0.037       .   A
C292       C297 0.030       .   A
C293       C294 0.037       .   A
C293       C296 0.038       .   A
C294       C295 0.036       .   A
C294       F300 0.036       .   A
C295       H299 0.029       .   A
C296       C301 0.037       .   A
C296       C305 0.037       .   A
C297       N310 0.031       .   A
C301       C302 0.036       .   A
C301       H307 0.029       .   A
C302       C303 0.036       .   A
C302       H306 0.029       .   A
C303       C304 0.036       .   A
C304       C305 0.036       .   A
C304       H309 0.029       .   A
C305       H308 0.029       .   A
C269       C270 0.037       .   A
C269       C274 0.036       .   A
C270       C271 0.037       .   A
C270      Cl277 0.048       .   A
C271       C272 0.037       .   A
C271       C276 0.030       .   A
C272       C273 0.037       .   A
C272       C275 0.038       .   A
C273       C274 0.036       .   A
C273       F279 0.036       .   A
C274       H278 0.029       .   A
C275       C280 0.037       .   A
C275       C284 0.037       .   A
C276       N289 0.031       .   A
C280       C281 0.036       .   A
C280       H286 0.029       .   A
C281       C282 0.036       .   A
C281       H285 0.029       .   A
C282       C283 0.036       .   A
C283       C284 0.036       .   A
C283       H288 0.029       .   A
C284       H287 0.029       .   A
C248       C249 0.037       .   A
C248       C253 0.036       .   A
C249       C250 0.037       .   A
C249      Cl256 0.048       .   A
C250       C251 0.037       .   A
C250       C255 0.030       .   A
C251       C252 0.037       .   A
C251       C254 0.038       .   A
C252       C253 0.036       .   A
C252       F258 0.036       .   A
C253       H257 0.029       .   A
C254       C259 0.037       .   A
C254       C263 0.037       .   A
C255       N268 0.031       .   A
C259       C260 0.036       .   A
C259       H265 0.029       .   A
C260       C261 0.036       .   A
C260       H264 0.029       .   A
C261       C262 0.036       .   A
C262       C263 0.036       .   A
C262       H267 0.029       .   A
C263       H266 0.029       .   A
C227       C228 0.037       .   A
C227       C232 0.036       .   A
C228       C229 0.037       .   A
C228      Cl235 0.048       .   A
C229       C230 0.037       .   A
C229       C234 0.030       .   A
C230       C231 0.037       .   A
C230       C233 0.038       .   A
C231       C232 0.036       .   A
C231       F237 0.036       .   A
C232       H236 0.029       .   A
C233       C238 0.037       .   A
C233       C242 0.037       .   A
C234       N247 0.031       .   A
C238       C239 0.036       .   A
C238       H244 0.029       .   A
C239       C240 0.036       .   A
C239       H243 0.029       .   A
C240       C241 0.036       .   A
C241       C242 0.036       .   A
C241       H246 0.029       .   A
C242       H245 0.029       .   A
C206       C207 0.037       .   A
C206       C211 0.036       .   A
C207       C208 0.037       .   A
C207      Cl214 0.048       .   A
C208       C209 0.037       .   A
C208       C213 0.030       .   A
C209       C210 0.037       .   A
C209       C212 0.038       .   A
C210       C211 0.036       .   A
C210       F216 0.036       .   A
C211       H215 0.029       .   A
C212       C217 0.037       .   A
C212       C221 0.037       .   A
C213       N226 0.031       .   A
C217       C218 0.036       .   A
C217       H223 0.029       .   A
C218       C219 0.036       .   A
C218       H222 0.029       .   A
C219       C220 0.036       .   A
C220       C221 0.036       .   A
C220       H225 0.029       .   A
C221       H224 0.029       .   A
C185       C186 0.037       .   A
C185       C190 0.036       .   A
C186       C187 0.037       .   A
C186      Cl193 0.048       .   A
C187       C188 0.037       .   A
C187       C192 0.030       .   A
C188       C189 0.037       .   A
C188       C191 0.038       .   A
C189       C190 0.036       .   A
C189       F195 0.036       .   A
C190       H194 0.029       .   A
C191       C196 0.037       .   A
C191       C200 0.037       .   A
C192       N205 0.031       .   A
C196       C197 0.036       .   A
C196       H202 0.029       .   A
C197       C198 0.036       .   A
C197       H201 0.029       .   A
C198       C199 0.036       .   A
C199       C200 0.036       .   A
C199       H204 0.029       .   A
C200       H203 0.029       .   A
