data_pcu_v1-6c_Zn_1_Ch_1-43_fer_tobacco
_audit_creation_date              2021-02-03
_audit_creation_method            'tobacco_3.0'
_symmetry_space_group_name_H-M    'P1'
_symmetry_Int_Tables_number       1
_symmetry_cell_setting            triclinic
loop_
_symmetry_equiv_pos_as_xyz
  x,y,z
_cell_length_a                    46.00125835359535
_cell_length_b                    46.00125835359535
_cell_length_c                    46.00125835359535
_cell_angle_alpha                 90.0
_cell_angle_beta                  90.0
_cell_angle_gamma                 90.0
loop_
_atom_site_label
_atom_site_type_symbol
_atom_site_fract_x
_atom_site_fract_y
_atom_site_fract_z
_atom_site_charge
Zn1       Zn   -0.0243732463    0.0243732463   -0.0243732463          1.4972
Zn2       Zn    0.0243732463    0.0243732463    0.0243732463          1.4936
Zn3       Zn   -0.0243732463   -0.0243732463    0.0243732463          1.4911
Zn4       Zn    0.0243732463   -0.0243732463   -0.0243732463          1.4948
O5         O    0.0000000000    0.0000000000    0.0000000000         -2.2757
O6         O   -0.0179125535    0.0651416963   -0.0179125535          -1.182
O7         O    0.0179125535    0.0179125535    0.0651416963         -1.1802
O8         O   -0.0651416963   -0.0179125535    0.0179125535         -1.1754
O9         O    0.0179125535    0.0651416963    0.0179125535         -1.1822
O10        O   -0.0651416963    0.0179125535   -0.0179125535         -1.1782
O11        O   -0.0179125535   -0.0179125535    0.0651416963          -1.184
O12        O    0.0179125535   -0.0651416963   -0.0179125535         -1.1779
O13        O    0.0651416963    0.0179125535    0.0179125535         -1.1855
O14        O   -0.0179125535   -0.0651416963    0.0179125535         -1.1794
O15        O    0.0651416963   -0.0179125535   -0.0179125535         -1.1841
O16        O    0.0179125535   -0.0179125535   -0.0651416963         -1.1832
O17        O   -0.0179125535    0.0179125535   -0.0651416963          -1.181
C18        C   -0.0000000000    0.0778848259    0.0000000000          0.3369
C19        C    0.0000000000   -0.0000000000    0.0778848259          0.3418
C20        C   -0.0778848259    0.0000000000    0.0000000000          0.3314
C21        C    0.0000000000   -0.0778848259   -0.0000000000          0.3351
C22        C    0.0778848259   -0.0000000000   -0.0000000000          0.3465
C23        C   -0.0000000000    0.0000000000   -0.0778848259           0.337
Zn24      Zn    0.9756267537    0.0243732463    0.4756267537          1.4972
Zn25      Zn    1.0243732463   -0.0243732463    0.4756267537          1.4936
Zn26      Zn    1.0243732463    0.0243732463    0.5243732463          1.4911
Zn27      Zn    0.9756267537   -0.0243732463    0.5243732463          1.4948
O28        O    1.0000000000    0.0000000000    0.5000000000         -2.2757
O29        O    0.9820874465    0.0179125535    0.4348583037          -1.182
O30        O    1.0651416963   -0.0179125535    0.4820874465         -1.1802
O31        O    1.0179125535    0.0651416963    0.5179125535         -1.1754
O32        O    1.0179125535   -0.0179125535    0.4348583037         -1.1822
O33        O    0.9820874465    0.0651416963    0.4820874465         -1.1782
O34        O    1.0651416963    0.0179125535    0.5179125535          -1.184
O35        O    0.9820874465   -0.0179125535    0.5651416963         -1.1779
O36        O    1.0179125535   -0.0651416963    0.4820874465         -1.1855
O37        O    1.0179125535    0.0179125535    0.5651416963         -1.1794
O38        O    0.9820874465   -0.0651416963    0.5179125535         -1.1841
O39        O    0.9348583037   -0.0179125535    0.5179125535         -1.1832
O40        O    0.9348583037    0.0179125535    0.4820874465          -1.181
C41        C    1.0000000000    0.0000000000    0.4221151741          0.3369
C42        C    1.0778848259    0.0000000000    0.5000000000          0.3418
C43        C    1.0000000000    0.0778848259    0.5000000000          0.3314
C44        C    1.0000000000    0.0000000000    0.5778848259          0.3351
C45        C    1.0000000000   -0.0778848259    0.5000000000          0.3465
C46        C    0.9221151741    0.0000000000    0.5000000000           0.337
Zn47      Zn    1.0243732463    0.4756267537   -0.0243732463          1.4972
Zn48      Zn    0.9756267537    0.4756267537    0.0243732463          1.4936
Zn49      Zn    1.0243732463    0.5243732463    0.0243732463          1.4911
Zn50      Zn    0.9756267537    0.5243732463   -0.0243732463          1.4948
O51        O    1.0000000000    0.5000000000    0.0000000000         -2.2757
O52        O    1.0179125535    0.4348583037   -0.0179125535          -1.182
O53        O    0.9820874465    0.4820874465    0.0651416963         -1.1802
O54        O    1.0651416963    0.5179125535    0.0179125535         -1.1754
O55        O    0.9820874465    0.4348583037    0.0179125535         -1.1822
O56        O    1.0651416963    0.4820874465   -0.0179125535         -1.1782
O57        O    1.0179125535    0.5179125535    0.0651416963          -1.184
O58        O    0.9820874465    0.5651416963   -0.0179125535         -1.1779
O59        O    0.9348583037    0.4820874465    0.0179125535         -1.1855
O60        O    1.0179125535    0.5651416963    0.0179125535         -1.1794
O61        O    0.9348583037    0.5179125535   -0.0179125535         -1.1841
O62        O    0.9820874465    0.5179125535   -0.0651416963         -1.1832
O63        O    1.0179125535    0.4820874465   -0.0651416963          -1.181
C64        C    1.0000000000    0.4221151741    0.0000000000          0.3369
C65        C    1.0000000000    0.5000000000    0.0778848259          0.3418
C66        C    1.0778848259    0.5000000000    0.0000000000 0.32339999999999997
C67        C    1.0000000000    0.5778848259    0.0000000000          0.3351
C68        C    0.9221151741    0.5000000000    0.0000000000          0.3465
C69        C    1.0000000000    0.5000000000   -0.0778848259           0.337
Zn70      Zn    0.9756267537    0.4756267537    0.5243732463          1.4972
Zn71      Zn    1.0243732463    0.4756267537    0.4756267537          1.4936
Zn72      Zn    0.9756267537    0.5243732463    0.4756267537          1.4911
Zn73      Zn    1.0243732463    0.5243732463    0.5243732463          1.4948
O74        O    1.0000000000    0.5000000000    0.5000000000         -2.2757
O75        O    0.9820874465    0.4348583037    0.5179125535          -1.182
O76        O    1.0179125535    0.4820874465    0.4348583037         -1.1802
O77        O    0.9348583037    0.5179125535    0.4820874465         -1.1754
O78        O    1.0179125535    0.4348583037    0.4820874465         -1.1822
O79        O    0.9348583037    0.4820874465    0.5179125535         -1.1782
O80        O    0.9820874465    0.5179125535    0.4348583037          -1.184
O81        O    1.0179125535    0.5651416963    0.5179125535         -1.1779
O82        O    1.0651416963    0.4820874465    0.4820874465         -1.1855
O83        O    0.9820874465    0.5651416963    0.4820874465         -1.1794
O84        O    1.0651416963    0.5179125535    0.5179125535         -1.1841
O85        O    1.0179125535    0.5179125535    0.5651416963         -1.1832
O86        O    0.9820874465    0.4820874465    0.5651416963          -1.181
C87        C    1.0000000000    0.4221151741    0.5000000000          0.3369
C88        C    1.0000000000    0.5000000000    0.4221151741          0.3418
C89        C    0.9221151741    0.5000000000    0.5000000000          0.3314
C90        C    1.0000000000    0.5778848259    0.5000000000          0.3351
C91        C    1.0778848259    0.5000000000    0.5000000000          0.3465
C92        C    1.0000000000    0.5000000000    0.5778848259           0.337
Zn93      Zn    0.5243732463    1.0243732463    0.0243732463          1.4972
Zn94      Zn    0.4756267537    0.9756267537    0.0243732463          1.4936
Zn95      Zn    0.4756267537    1.0243732463   -0.0243732463          1.4911
Zn96      Zn    0.5243732463    0.9756267537   -0.0243732463          1.4948
O97        O    0.5000000000    1.0000000000    0.0000000000         -2.2757
O98        O    0.5179125535    1.0179125535    0.0651416963          -1.182
O99        O    0.4348583037    0.9820874465    0.0179125535         -1.1802
O100       O    0.4820874465    1.0651416963   -0.0179125535         -1.1754
O101       O    0.4820874465    0.9820874465    0.0651416963         -1.1822
O102       O    0.5179125535    1.0651416963    0.0179125535         -1.1782
O103       O    0.4348583037    1.0179125535   -0.0179125535          -1.184
O104       O    0.5179125535    0.9820874465   -0.0651416963         -1.1779
O105       O    0.4820874465    0.9348583037    0.0179125535         -1.1855
O106       O    0.4820874465    1.0179125535   -0.0651416963         -1.1794
O107       O    0.5179125535    0.9348583037   -0.0179125535         -1.1841
O108       O    0.5651416963    0.9820874465   -0.0179125535         -1.1832
O109       O    0.5651416963    1.0179125535    0.0179125535          -1.181
C110       C    0.5000000000    1.0000000000    0.0778848259          0.3369
C111       C    0.4221151741    1.0000000000    0.0000000000          0.3418
C112       C    0.5000000000    1.0778848259    0.0000000000          0.3314
C113       C    0.5000000000    1.0000000000   -0.0778848259          0.3351
C114       C    0.5000000000    0.9221151741    0.0000000000          0.3465
C115       C    0.5778848259    1.0000000000    0.0000000000           0.337
Zn116     Zn    0.4756267537    1.0243732463    0.5243732463          1.4972
Zn117     Zn    0.4756267537    0.9756267537    0.4756267537          1.4936
Zn118     Zn    0.5243732463    1.0243732463    0.4756267537          1.4911
Zn119     Zn    0.5243732463    0.9756267537    0.5243732463          1.4948
O120       O    0.5000000000    1.0000000000    0.5000000000         -2.2757
O121       O    0.4348583037    1.0179125535    0.5179125535          -1.182
O122       O    0.4820874465    0.9820874465    0.4348583037         -1.1802
O123       O    0.5179125535    1.0651416963    0.4820874465         -1.1754
O124       O    0.4348583037    0.9820874465    0.4820874465         -1.1822
O125       O    0.4820874465    1.0651416963    0.5179125535         -1.1782
O126       O    0.5179125535    1.0179125535    0.4348583037          -1.184
O127       O    0.5651416963    0.9820874465    0.5179125535         -1.1779
O128       O    0.4820874465    0.9348583037    0.4820874465         -1.1855
O129       O    0.5651416963    1.0179125535    0.4820874465         -1.1794
O130       O    0.5179125535    0.9348583037    0.5179125535         -1.1841
O131       O    0.5179125535    0.9820874465    0.5651416963         -1.1832
O132       O    0.4820874465    1.0179125535    0.5651416963          -1.181
C133       C    0.4221151741    1.0000000000    0.5000000000          0.3369
C134       C    0.5000000000    1.0000000000    0.4221151741          0.3418
C135       C    0.5000000000    1.0778848259    0.5000000000          0.3314
C136       C    0.5778848259    1.0000000000    0.5000000000          0.3351
C137       C    0.5000000000    0.9221151741    0.5000000000          0.3465
C138       C    0.5000000000    1.0000000000    0.5778848259           0.337
Zn139     Zn    0.4756267537    0.4756267537   -0.0243732463          1.4972
Zn140     Zn    0.5243732463    0.5243732463   -0.0243732463          1.4936
Zn141     Zn    0.4756267537    0.5243732463    0.0243732463          1.4911
Zn142     Zn    0.5243732463    0.4756267537    0.0243732463          1.4948
O143       O    0.5000000000    0.5000000000    0.0000000000         -2.2757
O144       O    0.4820874465    0.4820874465   -0.0651416963          -1.182
O145       O    0.5179125535    0.5651416963   -0.0179125535         -1.1802
O146       O    0.4348583037    0.5179125535    0.0179125535         -1.1754
O147       O    0.5179125535    0.5179125535   -0.0651416963         -1.1822
O148       O    0.4348583037    0.4820874465   -0.0179125535         -1.1782
O149       O    0.4820874465    0.5651416963    0.0179125535          -1.184
O150       O    0.5179125535    0.4820874465    0.0651416963         -1.1779
O151       O    0.5651416963    0.5179125535   -0.0179125535         -1.1855
O152       O    0.4820874465    0.5179125535    0.0651416963         -1.1794
O153       O    0.5651416963    0.4820874465    0.0179125535         -1.1841
O154       O    0.5179125535    0.4348583037    0.0179125535         -1.1832
O155       O    0.4820874465    0.4348583037   -0.0179125535          -1.181
C156       C    0.5000000000    0.5000000000   -0.0778848259          0.3369
C157       C    0.5000000000    0.5778848259    0.0000000000          0.3418
C158       C    0.4221151741    0.5000000000    0.0000000000          0.3314
C159       C    0.5000000000    0.5000000000    0.0778848259          0.3351
C160       C    0.5778848259    0.5000000000    0.0000000000          0.3465
C161       C    0.5000000000    0.4221151741    0.0000000000           0.337
Zn162     Zn    0.5243732463    0.5243732463    0.4756267537          1.4972
Zn163     Zn    0.4756267537    0.5243732463    0.5243732463          1.4936
Zn164     Zn    0.4756267537    0.4756267537    0.4756267537          1.4911
Zn165     Zn    0.5243732463    0.4756267537    0.5243732463          1.4948
O166       O    0.5000000000    0.5000000000    0.5000000000         -2.2757
O167       O    0.5179125535    0.5651416963    0.4820874465          -1.182
O168       O    0.4348583037    0.5179125535    0.5179125535         -1.1802
O169       O    0.4820874465    0.4820874465    0.4348583037         -1.1754
O170       O    0.4820874465    0.5651416963    0.5179125535         -1.1822
O171       O    0.5179125535    0.5179125535    0.4348583037         -1.1782
O172       O    0.4348583037    0.4820874465    0.4820874465          -1.184
O173       O    0.5179125535    0.4348583037    0.5179125535         -1.1779
O174       O    0.4820874465    0.5179125535    0.5651416963         -1.1855
O175       O    0.4820874465    0.4348583037    0.4820874465         -1.1794
O176       O    0.5179125535    0.4820874465    0.5651416963         -1.1841
O177       O    0.5651416963    0.4820874465    0.5179125535         -1.1832
O178       O    0.5651416963    0.5179125535    0.4820874465          -1.181
C179       C    0.5000000000    0.5778848259    0.5000000000          0.3369
C180       C    0.4221151741    0.5000000000    0.5000000000          0.3418
C181       C    0.5000000000    0.5000000000    0.4221151741          0.3314
C182       C    0.5000000000    0.4221151741    0.5000000000          0.3351
C183       C    0.5000000000    0.5000000000    0.5778848259          0.3465
C184       C    0.5778848259    0.5000000000    0.5000000000           0.337
C1036      C    0.5000000000    0.5000000000   -0.1113621710          0.5601
C1037      C    0.4802553364    0.4846246572   -0.1260554358         -0.4352
C1038      C    0.4797378650    0.4852719360   -0.1550490653         -0.4328
C1039      C    0.4990439860    0.5010728825   -0.1705091935         -0.4352
C1040      C    0.5189121991    0.5158767433   -0.1550775121          0.5597
C1041      C    0.5195819765    0.5152224836   -0.1265480242          0.5572
C1042      C    0.4993384956    0.5019313577   -0.1998772318         -0.4332
H1043      H    0.4631856297    0.4719481741   -0.1652365911         -0.4293
H1044      H    0.4641362655    0.4716721787   -0.1145629286          -0.433
H1045      H    0.5367401587    0.5280310663   -0.1165257317           0.553
H1046      H    0.5353703907    0.5298940670   -0.1641409351          0.5577
C1047      C    0.4784524679    0.4899569039   -0.2164187049         -0.4257
C1048      C    0.4803694582    0.4895358759   -0.2453296808         -0.4256
C1049      C    0.5032050417    0.5008881539   -0.2594997000          -0.433
C1050      C    0.5230703625    0.5141440288   -0.2429020171          0.5609
C1051      C    0.5213085171    0.5145698279   -0.2143663134          0.5607
C1052      C    0.5081381356    0.4985721464   -0.2884215551         -0.4359
H1053      H    0.4620790631    0.4801449139   -0.2567821207         -0.4185
H1054      H    0.4590756285    0.4802234859   -0.2072615332         -0.4193
H1055      H    0.5400322223    0.5245561642   -0.2043936607          0.5538
H1056      H    0.5431464328    0.5231868304   -0.2514090008          0.5537
C1057      C    0.4987553507    0.4760182721   -0.3050812319          0.5579
C1058      C    0.5074042610    0.4740709931   -0.3327411558          0.5527
C1059      C    0.5241698024    0.4954547582   -0.3447221287           0.555
C1060      C    0.5329544305    0.5185629476   -0.3285969080           0.562
C1061      C    0.5246882980    0.5191962731   -0.3010946943         -0.4338
C1062      C    0.5240341532    0.5044735179   -0.3728141823           0.562
H1063      H    0.5016866117    0.4552915258   -0.3459300945          0.5461
C1064      C    0.4822930484    0.4490758338   -0.2945745255          0.5521
H1065      H    0.5316889511    0.5385810319   -0.2896088211         -0.4276
H1066      H    0.5464134882    0.5359779248   -0.3374145627          -0.436
C1067      C    0.5000000000    0.5000000000   -0.3886378290          -0.424
H1068      H    0.4807645221    0.4894766990   -0.3795377188         -0.4182
H1069      H    0.5436711690    0.5133622085   -0.3825866153           0.555
H1070      H    0.4886304287    0.4424855106   -0.2726813592          0.5428
H1071      H    0.4865852065    0.4301811659   -0.3082460276           0.539
H1072      H    0.4588343543    0.4528175500   -0.2952316624         -0.4303
C999       C    0.5000000000    0.5000000000    0.3886378290          0.5601
C1000      C    0.5246141341    0.4954836616    0.3739445642         -0.4352
C1001      C    0.5244750102    0.4946667215    0.3449509347         -0.4328
C1002      C    0.4998347774    0.4985725053    0.3294908065         -0.4352
C1003      C    0.4755651902    0.5035612245    0.3449224879          0.5597
C1004      C    0.4756082190    0.5044965352    0.3734519758          0.5572
C1005      C    0.4989978566    0.4982213940    0.3001227682         -0.4332
H1006      H    0.5454337532    0.4911695491    0.3347634089         -0.4293
H1007      H    0.5450075159    0.4920629716    0.3854370714          -0.433
H1008      H    0.4546311105    0.5087888454    0.3834742683           0.553
H1009      H    0.4541511171    0.5065268457    0.3358590649          0.5577
C1010      C    0.5218317281    0.4905906660    0.2835812951         -0.4257
C1011      C    0.5208710079    0.4923021370    0.2546703192         -0.4256
C1012      C    0.4972049524    0.5018024479    0.2405003000          -0.433
C1013      C    0.4740931733    0.5078186637    0.2570979829          0.5609
C1014      C    0.4749471349    0.5062198662    0.2856336866          0.5607
C1015      C    0.4956530299    0.5070265117    0.2115784449         -0.4359
H1016      H    0.5400492732    0.4848911411    0.2432178793         -0.4185
H1017      H    0.5419883639    0.4825962075    0.2927384668         -0.4193
H1018      H    0.4550360824    0.5135583972    0.2956063393          0.5538
H1019      H    0.4539871226    0.5167946088    0.2485909992          0.5537
C1020      C    0.5187350947    0.5150222718    0.1949187681          0.5579
C1021      C    0.5144362343    0.5227756804    0.1672588442          0.5527
C1022      C    0.4873171880    0.5210709480    0.1552778713           0.555
C1023      C    0.4642190840    0.5122598355    0.1714030920           0.562
C1024      C    0.4692444682    0.5056662354    0.1989053057         -0.4338
C1025      C    0.4806730899    0.5149707523    0.1271858177           0.562
H1026      H    0.5322620451    0.5309976253    0.1540699055          0.5461
C1027      C    0.5498031116    0.5206508332    0.2054254745          0.5521
H1028      H    0.4501132841    0.4979996973    0.2103911789         -0.4276
H1029      H    0.4422628761    0.5107260186    0.1625854373          -0.436
C1030      C    0.5000000000    0.5000000000    0.1113621710          -0.424
H1031      H    0.5206524152    0.4926364940    0.1204622812         -0.4182
H1032      H    0.4609741552    0.5237213628    0.1174133847           0.555
H1033      H    0.5505087561    0.5297665785    0.2273186408          0.5428
H1034      H    0.5610568328    0.5364237484    0.1917539724           0.539
H1035      H    0.5626129180    0.5006453431    0.2047683376         -0.4303
C962       C    0.5000000000    0.6113621710    0.5000000000          0.5601
C963       C    0.5243379489    0.6260554358    0.5058238434         -0.4352
C964       C    0.5245410941    0.6550490653    0.5050204266         -0.4328
C965       C    0.5004261946    0.6705091935    0.4986276306         -0.4352
C966       C    0.4762123207    0.6550775121    0.4933751554          0.5597
C967       C    0.4758734183    0.6265480242    0.4942479684          0.5572
C968       C    0.4998027634    0.6998772318    0.4979680481         -0.4332
H969       H    0.5451237468    0.6652365911    0.5102980715         -0.4293
H970       H    0.5443726057    0.6145629286    0.5109427955          -0.433
H971       H    0.4549524020    0.6165257317    0.4896901092           0.553
H972       H    0.4554282031    0.6641409351    0.4874272239          0.5577
C973       C    0.5237720409    0.7164187049    0.5002235811         -0.4257
C974       C    0.5222012426    0.7453296808    0.5014003178         -0.4256
C975       C    0.4967147796    0.7594997000    0.5005181088          -0.433
C976       C    0.4731442708    0.7429020171    0.4966735931          0.5609
C977       C    0.4745718633    0.7143663134    0.4955567298          0.5607
C978       C    0.4931827307    0.7884215551    0.5046682818         -0.4359
H979       H    0.5427383318    0.7567821207    0.5023784233         -0.4185
H980       H    0.5454398851    0.7072615332    0.5010637361         -0.4193
H981       H    0.4533938916    0.7043936607    0.4942159983          0.5538
H982       H    0.4511257607    0.7514090008    0.4967515386          0.5537
C983       C    0.5110593834    0.8050812319    0.5213157797          0.5579
C984       C    0.5039921446    0.8327411558    0.5266683194          0.5527
C985       C    0.4798791725    0.8447221287    0.5141418129           0.555
C986       C    0.4623175932    0.8285969080    0.4967421278           0.562
C987       C    0.4695802461    0.8010946943    0.4927441382         -0.4338
C988       C    0.4762696706    0.8728141823    0.5058757423           0.562
H989       H    0.5169700871    0.8459300945    0.5413969621          0.5461
C990       C    0.5371971213    0.7945745255    0.5390279516          0.5521
H991       H    0.4551838261    0.7896088211    0.4779955414         -0.4276
H992       H    0.4428573016    0.8374145627    0.4864598755          -0.436
C993       C    0.5000000000    0.8886378290    0.5000000000          -0.424
H994       H    0.5218661036    0.8795377188    0.5016177097         -0.4182
H995       H    0.4547146276    0.8825866153    0.5059122470           0.555
H996       H    0.5341559242    0.7726813592    0.5476503566          0.5428
H997       H    0.5411106565    0.8082460276    0.5580046567           0.539
H998       H    0.5570032054    0.7952316624    0.5259119383         -0.4303
C925       C    0.5000000000    1.1113621710    0.5000000000          0.5601
C926       C    0.4976675089    1.1260554358    0.4750838929         -0.4352
C927       C    0.4968414946    1.1550490653    0.4751505769         -0.4328
C928       C    0.4985635033    1.1705091935    0.5000389458         -0.4352
C929       C    0.5013968661    1.1550775121    0.5246534179          0.5597
C930       C    0.5023323343    1.1265480242    0.5246928740          0.5572
C931       C    0.4981400960    1.1998772318    0.5008417171         -0.4332
H932       H    0.4952024989    1.1652365911    0.4539653741         -0.4293
H933       H    0.4960549408    1.1145629286    0.4544685887          -0.433
H934       H    0.5047617657    1.1165257317    0.5459663521           0.553
H935       H    0.5024662989    1.1641409351    0.5462454014          0.5577
C936       C    0.4925486176    1.2164187049    0.4774248628         -0.4257
C937       C    0.4941688930    1.2453296808    0.4785324837         -0.4256
C938       C    0.5015494578    1.2594997000    0.5029428371          -0.433
C939       C    0.5055082301    1.2429020171    0.5264944254          0.5609
C940       C    0.5039907950    1.2143663134    0.5255030654          0.5607
C941       C    0.5066166628    1.2884215551    0.5049485140         -0.4359
H942       H    0.4884745595    1.2567821207    0.4587763888         -0.4185
H943       H    0.4863591933    1.2072615332    0.4566428428         -0.4193
H944       H    0.5095484513    1.2043936607    0.5459827261          0.5538
H945       H    0.5126797844    1.2514090008    0.5473124385          0.5537
C946       C    0.5166128773    1.3050812319    0.4826597367          0.5579
C947       C    0.5239578504    1.3327411558    0.4876243027          0.5527
C948       C    0.5198729511    1.3447221287    0.5144880773           0.555
C949       C    0.5090631365    1.3285969080    0.5367210712           0.562
C950       C    0.5029374135    1.3010946943    0.5311348769         -0.4338
C951       C    0.5132116718    1.3728141823    0.5205695068           0.562
H952       H    0.5337167624    1.3459300945    0.4705912894          0.5461
C953       C    0.5249539331    1.2945745255    0.4522076569          0.5521
H954       H    0.4936168654    1.2896088211    0.5495170802         -0.4276
H955       H    0.5056028775    1.3374145627    0.5584570844          -0.436
C956       C    0.5000000000    1.3886378290    0.5000000000          -0.424
H957       H    0.4944827139    1.3795377188    0.4787796553         -0.4182
H958       H    0.5201945967    1.3825866153    0.5409621518           0.555
H959       H    0.5340964093    1.2726813592    0.4523070392          0.5428
H960       H    0.5416560957    1.3082460276    0.4423858006           0.539
H961       H    0.5061534823    1.2952316624    0.4376868503         -0.4303
C888       C    0.5000000000    0.8886378290    0.0000000000          0.5601
C889       C    0.5083791568    0.8739445642    0.0235805564         -0.4352
C890       C    0.5076019009    0.8449509347    0.0238679930         -0.4328
C891       C    0.4986807394    0.8294908065    0.0005697291         -0.4352
C892       C    0.4908829058    0.8449224879   -0.0229482209          0.5597
C893       C    0.4917147266    0.8734519758   -0.0233780251          0.5572
C894       C    0.4979585957    0.8001227682    0.0000199801         -0.4332
H895       H    0.5150385809    0.8347634089    0.0437726385         -0.4293
H896       H    0.5155997647    0.8854370714    0.0429571909          -0.433
H897       H    0.4849577651    0.8834742683   -0.0436956647           0.553
H898       H    0.4827583148    0.8358590649   -0.0429819040          0.5577
C899       C    0.5027504707    0.7835812951    0.0236134460         -0.4257
C900       C    0.5037534793    0.7546703192    0.0219264101         -0.4256
C901       C    0.5001657871    0.7405003000   -0.0033216900          -0.433
C902       C    0.4938363501    0.7570979829   -0.0263496602          0.5609
C903       C    0.4928776453    0.7856336866   -0.0248113855          0.5607
C904       C    0.5039167900    0.7115784449   -0.0072750789         -0.4359
H905       H    0.5069101580    0.7432178793    0.0422430067         -0.4185
H906       H    0.5058902370    0.7927384668    0.0450690559         -0.4193
H907       H    0.4892922392    0.7956063393   -0.0457266648          0.5538
H908       H    0.4915721840    0.7485909992   -0.0482515874          0.5537
C909       C    0.5223710585    0.6949187681    0.0087297288          0.5579
C910       C    0.5269416415    0.6672588442    0.0011333273          0.5527
C911       C    0.5119217603    0.6552778713   -0.0215106997           0.555
C912       C    0.4927530785    0.6714030920   -0.0371222257           0.562
C913       C    0.4895501458    0.6989053057   -0.0294755747         -0.4338
C914       C    0.5033186980    0.6271858177   -0.0242206343           0.562
H915       H    0.5429669592    0.6540699055    0.0124712769          0.5461
C916       C    0.5427625299    0.7054254745    0.0328355429          0.5521
H917       H    0.4733541321    0.7103911789   -0.0422218352         -0.4276
H918       H    0.4804595365    0.6625854373   -0.0553786352          -0.436
C919       C    0.5000000000    0.6113621710    0.0000000000          -0.424
H920       H    0.5039339963    0.6204622812    0.0215700521         -0.4182
H921       H    0.5010626159    0.6174133847   -0.0456573155           0.555
H922       H    0.5510126036    0.7273186408    0.0288946000          0.5428
H923       H    0.5620478180    0.6917539724    0.0347087101           0.539
H924       H    0.5318272786    0.7047683376    0.0539241904         -0.4303
C851       C    0.5000000000    1.1113621710    0.0000000000          0.5601
C852       C    0.5144433675    1.1260554358    0.0204362923         -0.4352
C853       C    0.5151261734    1.1550490653    0.0199666939         -0.4328
C854       C    0.5012258449    1.1705091935   -0.0007498959         -0.4352
C855       C    0.4864986588    1.1550775121   -0.0206750100          0.5597
C856       C    0.4856680565    1.1265480242   -0.0202428557          0.5572
C857       C    0.5011926809    1.1998772318   -0.0016568775         -0.4332
H858       H    0.5271084056    1.1652365911    0.0375144925         -0.4293
H859       H    0.5261185797    1.1145629286    0.0375032359          -0.433
H860       H    0.4729566089    1.1165257317   -0.0374731229           0.553
H861       H    0.4748073735    1.1641409351   -0.0388593792          0.5577
C862       C    0.5177137568    1.2164187049    0.0158550541         -0.4257
C863       C    0.5157570027    1.2453296808    0.0157026409         -0.4256
C864       C    0.4971897279    1.2594997000   -0.0017786176          -0.433
C865       C    0.4820168325    1.2429020171   -0.0202212972          0.5609
C866       C    0.4838264777    1.2143663134   -0.0201183986          0.5607
C867       C    0.4917972162    1.2884215551   -0.0009911382         -0.4359
H868       H    0.5305422474    1.2567821207    0.0299898820         -0.4185
H869       H    0.5334396356    1.2072615332    0.0307848253         -0.4193
H870       H    0.4687989965    1.2043936607   -0.0351010171          0.5538
H871       H    0.4654216279    1.2514090008   -0.0346926498          0.5537
C872       C    0.4942433598    1.3050812319    0.0233138053          0.5579
C873       C    0.4854012209    1.3327411558    0.0226718356          0.5527
C874       C    0.4755499492    1.3447221287   -0.0026520905           0.555
C875       C    0.4738369033    1.3285969080   -0.0273142799           0.562
C876       C    0.4819320064    1.3010946943   -0.0255256061         -0.4338
C877       C    0.4782926669    1.3728141823   -0.0112447575           0.562
H878       H    0.4854329268    1.3459300945    0.0423023960          0.5461
C879       C    0.5021939565    1.2945745255    0.0538701531          0.5521
H880       H    0.4808476847    1.2896088211   -0.0461072061         -0.4276
H881       H    0.4660004836    1.3374145627   -0.0478816859          -0.436
C882       C    0.5000000000    1.3886378290    0.0000000000          -0.424
H883       H    0.5153617375    1.3795377188    0.0156448232         -0.4182
H884       H    0.4620730384    1.3825866153   -0.0254414071           0.555
H885       H    0.4942190439    1.2726813592    0.0583417876          0.5428
H886       H    0.4926117760    1.3082460276    0.0707109640           0.539
H887       H    0.5257306020    1.2952316624    0.0570852879         -0.4303
C814       C    0.5000000000    1.0000000000   -0.1113621710          0.5601
C815       C    0.4753054923    1.0040539113   -0.1260554358         -0.4352
C816       C    0.4754292701    1.0048733169   -0.1550490653         -0.4328
C817       C    0.5001384212    1.0014303423   -0.1705091935         -0.4352
C818       C    0.5244973021    0.9968976714   -0.1550775121          0.5597
C819       C    0.5244718224    0.9959617182   -0.1265480242          0.5572
C820       C    0.5009686097    1.0017970882   -0.1998772318         -0.4332
H821       H    0.4544086247    1.0079767976   -0.1652365911         -0.4293
H822       H    0.4548515431    1.0070915262   -0.1145629286          -0.433
H823       H    0.5455257426    0.9920635841   -0.1165257317           0.553
H824       H    0.5459632283    0.9943341881   -0.1641409351          0.5577
C825       C    0.4779956418    1.0089982298   -0.2164187049         -0.4257
C826       C    0.4789882913    1.0073050779   -0.2453296808         -0.4256
C827       C    0.5028283605    0.9982502896   -0.2594997000          -0.433
C828       C    0.5260489074    0.9926685884   -0.2429020171          0.5609
C829       C    0.5251651109    0.9942510888   -0.2143663134          0.5607
C830       C    0.5044779863    0.9930562506   -0.2884215551         -0.4359
H831       H    0.4596744076    1.0143550860   -0.2567821207         -0.4185
H832       H    0.4576926170    1.0166132488   -0.2072615332         -0.4193
H833       H    0.5452102938    0.9872872760   -0.2043936607          0.5538
H834       H    0.5463197636    0.9840713066   -0.2514090008          0.5537
C835       C    0.4815499400    0.9846289978   -0.3050812319          0.5579
C836       C    0.4859934578    0.9769575771   -0.3327411558          0.5527
C837       C    0.5130757623    0.9791706215   -0.3447221287           0.555
C838       C    0.5360045531    0.9884133841   -0.3285969080           0.562
C839       C    0.5308563913    0.9949115745   -0.3010946943         -0.4338
C840       C    0.5196042840    0.9853943528   -0.3728141823           0.562
H841       H    0.4683249831    0.9684027591   -0.3459300945          0.5461
C842       C    0.4505929499    0.9784187525   -0.2945745255          0.5521
H843       H    0.5498404263    1.0029355654   -0.2896088211         -0.4276
H844       H    0.5579281329    0.9903587152   -0.3374145627          -0.436
C845       C    0.5000000000    1.0000000000   -0.3886378290          -0.424
H846       H    0.4792131163    1.0069748793   -0.3795377188         -0.4182
H847       H    0.5394638697    0.9770147307   -0.3825866153           0.555
H848       H    0.4500583934    0.9692913762   -0.2726813592          0.5428
H849       H    0.4396370257    0.9624375504   -0.3082460276           0.539
H850       H    0.4374101980    0.9981804787   -0.2952316624         -0.4303
C777       C    0.5000000000    1.0000000000    0.1113621710          0.5601
C778       C    0.5246141341    1.0045163384    0.1260554358         -0.4352
C779       C    0.5244750102    1.0053332785    0.1550490653         -0.4328
C780       C    0.4998347774    1.0014274947    0.1705091935         -0.4352
C781       C    0.4755651902    0.9964387755    0.1550775121          0.5597
C782       C    0.4756082190    0.9955034648    0.1265480242          0.5572
C783       C    0.4989978566    1.0017786060    0.1998772318         -0.4332
H784       H    0.5454337532    1.0088304509    0.1652365911         -0.4293
H785       H    0.5450075159    1.0079370284    0.1145629286          -0.433
H786       H    0.4546311105    0.9912111546    0.1165257317           0.553
H787       H    0.4541511171    0.9934731543    0.1641409351          0.5577
C788       C    0.5218317281    1.0094093340    0.2164187049         -0.4257
C789       C    0.5208710079    1.0076978630    0.2453296808         -0.4256
C790       C    0.4972049524    0.9981975521    0.2594997000          -0.433
C791       C    0.4740931733    0.9921813363    0.2429020171          0.5609
C792       C    0.4749471349    0.9937801338    0.2143663134          0.5607
C793       C    0.4956530299    0.9929734883    0.2884215551         -0.4359
H794       H    0.5400492732    1.0151088589    0.2567821207         -0.4185
H795       H    0.5419883639    1.0174037925    0.2072615332         -0.4193
H796       H    0.4550360824    0.9864416028    0.2043936607          0.5538
H797       H    0.4539871226    0.9832053912    0.2514090008          0.5537
C798       C    0.5187350947    0.9849777282    0.3050812319          0.5579
C799       C    0.5144362343    0.9772243196    0.3327411558          0.5527
C800       C    0.4873171880    0.9789290520    0.3447221287           0.555
C801       C    0.4642190840    0.9877401645    0.3285969080           0.562
C802       C    0.4692444682    0.9943337646    0.3010946943         -0.4338
C803       C    0.4806730899    0.9850292477    0.3728141823           0.562
H804       H    0.5322620451    0.9690023747    0.3459300945          0.5461
C805       C    0.5498031116    0.9793491668    0.2945745255          0.5521
H806       H    0.4501132841    1.0020003027    0.2896088211         -0.4276
H807       H    0.4422628761    0.9892739814    0.3374145627          -0.436
C808       C    0.5000000000    1.0000000000    0.3886378290          -0.424
H809       H    0.5206524152    1.0073635060    0.3795377188         -0.4182
H810       H    0.4609741552    0.9762786372    0.3825866153           0.555
H811       H    0.5505087561    0.9702334215    0.2726813592          0.5428
H812       H    0.5610568328    0.9635762516    0.3082460276           0.539
H813       H    0.5626129180    0.9993546569    0.2952316624         -0.4303
C740       C    0.8886378290    0.5000000000    0.5000000000          0.5601
C741       C    0.8739445642    0.4884193755    0.5221842747         -0.4352
C742       C    0.8449509347    0.4891490419    0.5225771277         -0.4328
C743       C    0.8294908065    0.5012270891    0.5007478583         -0.4352
C744       C    0.8449224879    0.5122233357    0.4785446437          0.5597
C745       C    0.8734519758    0.5114594573    0.4780032128          0.5572
C746       C    0.8001227682    0.5020187399    0.5003040065         -0.4332
H747       H    0.8347634089    0.4790135052    0.5412525131         -0.4293
H748       H    0.8854370714    0.4785713205    0.5403668751          -0.433
H749       H    0.8834742683    0.5209793962    0.4588242198           0.553
H750       H    0.8358590649    0.5230580490    0.4598372541          0.5577
C751       C    0.7835812951    0.4939886609    0.5230005157         -0.4257
C752       C    0.7546703192    0.4932303042    0.5211902639         -0.4256
C753       C    0.7405003000    0.5002983004    0.4966875799          -0.433
C754       C    0.7570979829    0.5097722332    0.4747651306          0.5609
C755       C    0.7856336866    0.5105074293    0.4764219017          0.5607
C756       C    0.7115784449    0.4971342543    0.4922504505         -0.4359
H757       H    0.7432178793    0.4872757278    0.5408694849         -0.4185
H758       H    0.7927384668    0.4878922494    0.5438100110         -0.4193
H759       H    0.7956063393    0.5169699110    0.4562095200          0.5538
H760       H    0.7485909992    0.5150637124    0.4533917568          0.5537
C761       C    0.6949187681    0.4766314041    0.5055300224          0.5579
C762       C    0.6672588442    0.4731629702    0.4973712533          0.5527
C763       C    0.6552778713    0.4911892493    0.4770389625           0.555
C764       C    0.6714030920    0.5123447987    0.4642483083           0.562
C765       C    0.6989053057    0.5144519066    0.4722664219         -0.4338
C766       C    0.6271858177    0.5000858198    0.4755532105           0.562
H767       H    0.6540699055    0.4557151718    0.5063675992          0.5461
C768       C    0.7054254745    0.4530823304    0.5265619863          0.5521
H769       H    0.7103911789    0.5322648150    0.4618992474         -0.4276
H770       H    0.6625854373    0.5270604123    0.4478813177          -0.436
C771       C    0.6113621710    0.5000000000    0.5000000000          -0.424
H772       H    0.6204622812    0.4931011605    0.5208122437         -0.4182
H773       H    0.6174133847    0.5053045185    0.4546394257           0.555
H774       H    0.7273186408    0.4454613000    0.5215107842          0.5428
H775       H    0.6917539724    0.4337240770    0.5257318540           0.539
H776       H    0.7047683376    0.4609749419    0.5489677324         -0.4303
C703       C    1.1113621710    0.5000000000    0.5000000000          0.5601
C704       C    1.1260554358    0.5196274212    0.4844752699         -0.4352
C705       C    1.1550490653    0.5201497895    0.4851186033         -0.4328
C706       C    1.1705091935    0.5009641279    0.5010655971         -0.4352
C707       C    1.1550775121    0.4812088242    0.5160197991          0.5597
C708       C    1.1265480242    0.4805341013    0.5153706408          0.5572
C709       C    1.1998772318    0.5006761412    0.5019262824         -0.4332
H710       H    1.1652365911    0.5366004424    0.4716696203         -0.4293
H711       H    1.1145629286    0.5356477396    0.4714008467          -0.433
H712       H    1.1165257317    0.4634736095    0.5283090575           0.553
H713       H    1.1641409351    0.4648574753    0.5301616103          0.5577
C714       C    1.2164187049    0.5214707009    0.4897936821         -0.4257
C715       C    1.2453296808    0.5195505708    0.4893872131         -0.4256
C716       C    1.2594997000    0.4968017902    0.5009124494          -0.433
C717       C    1.2429020171    0.4770376321    0.5143186882          0.5609
C718       C    1.2143663134    0.4788026578    0.5147311056          0.5607
C719       C    1.2884215551    0.4918512637    0.4986339428         -0.4359
H720       H    1.2567821207    0.5377691771    0.4798577270         -0.4185
H721       H    1.2072615332    0.5407731215    0.4799135056         -0.4193
H722       H    1.2043936607    0.4601552719    0.5248592369          0.5538
H723       H    1.2514090008    0.4570307600    0.5235135744          0.5537
C724       C    1.3050812319    0.5010626310    0.4760095177          0.5579
C725       C    1.3327411558    0.4923991930    0.4741279260          0.5527
C726       C    1.3447221287    0.4757964025    0.4956382988           0.555
C727       C    1.3285969080    0.4671873810    0.5188124839           0.562
C728       C    1.3010946943    0.4754580815    0.5193830646         -0.4338
C729       C    1.3728141823    0.4760004856    0.5046557694           0.562
H730       H    1.3459300945    0.4979741719    0.4553056117          0.5461
C731       C    1.2945745255    0.5173200098    0.4489429329          0.5521
H732       H    1.2896088211    0.4686047289    0.5388203889         -0.4276
H733       H    1.3374145627    0.4538608624    0.5363290921          -0.436
C734       C    1.3886378290    0.5000000000    0.5000000000          -0.424
H735       H    1.3795377188    0.5191550692    0.4893310358         -0.4182
H736       H    1.3825866153    0.4564314860    0.5136932172           0.555
H737       H    1.2726813592    0.5109328021    0.4424008900          0.5428
H738       H    1.3082460276    0.5128845954    0.4300813796           0.539
H739       H    1.2952316624    0.5408064221    0.4525065279         -0.4303
C666       C    0.8886378290    0.5000000000    0.0000000000          0.5601
C667       C    0.8739445642    0.5091994756    0.0232727858         -0.4352
C668       C    0.8449509347    0.5099739836    0.0229780251         -0.4328
C669       C    0.8294908065    0.5013684382   -0.0004386530         -0.4352
C670       C    0.8449224879    0.4917722839   -0.0232819015          0.5597
C671       C    0.8734519758    0.4908630308   -0.0230584823          0.5572
C672       C    0.8001227682    0.5015507533   -0.0013277406         -0.4332
H673       H    0.8347634089    0.5174654129    0.0428621296         -0.4293
H674       H    0.8854370714    0.5165063393    0.0426170585          -0.433
H675       H    0.8834742683    0.4825879710   -0.0428065554           0.553
H676       H    0.8358590649    0.4847141197   -0.0437156911          0.5577
C677       C    0.7835812951    0.5134607052    0.0195951355         -0.4257
C678       C    0.7546703192    0.5115955325    0.0189841958         -0.4256
C679       C    0.7405003000    0.4976901941   -0.0023928867          -0.433
C680       C    0.7570979829    0.4873103232   -0.0239011982          0.5609
C681       C    0.7856336866    0.4890442739   -0.0233731652          0.5607
C682       C    0.7115784449    0.4922644424   -0.0029033025         -0.4359
H683       H    0.7432178793    0.5225816835    0.0363632984         -0.4185
H684       H    0.7927384668    0.5252088121    0.0378210323         -0.4193
H685       H    0.7956063393    0.4779872456   -0.0414852102          0.5538
H686       H    0.7485909992    0.4746091259   -0.0418873165          0.5537
C687       C    0.6949187681    0.4888920630    0.0212905180          0.5579
C688       C    0.6672588442    0.4804527016    0.0185752417          0.5527
C689       C    0.6552778713    0.4768711293   -0.0083602577           0.555
C690       C    0.6714030920    0.4810403054   -0.0327277787           0.562
C691       C    0.6989053057    0.4884825886   -0.0290750442         -0.4338
C692       C    0.6271858177    0.4815685276   -0.0160603145           0.562
H693       H    0.6540699055    0.4758400836    0.0376562182          0.5461
C694       C    0.7054254745    0.4893892183    0.0528603647          0.5521
H695       H    0.7103911789    0.4922974219   -0.0493290577         -0.4276
H696       H    0.6625854373    0.4782912969   -0.0545651460          -0.436
C697       C    0.6113621710    0.5000000000    0.0000000000          -0.424
H698       H    0.6204622812    0.5112251606    0.0188345226         -0.4182
H699       H    0.6174133847    0.4691672696   -0.0336906864           0.555
H700       H    0.7273186408    0.4805828978    0.0553187109          0.5428
H701       H    0.6917539724    0.4760954295    0.0669566859           0.539
H702       H    0.7047683376    0.5114974219    0.0615516309         -0.4303
C629       C    1.1113621710    0.5000000000    0.0000000000          0.5601
C630       C    1.1260554358    0.5183791911    0.0169840584         -0.4352
C631       C    1.1550490653    0.5178245939    0.0175998249         -0.4328
C632       C    1.1705091935    0.4990967102    0.0011176347         -0.4352
C633       C    1.1550775121    0.4812613323   -0.0160811873          0.5597
C634       C    1.1265480242    0.4817980706   -0.0168483701          0.5572
C635       C    1.1998772318    0.4982017903    0.0009665261         -0.4332
H636       H    1.1652365911    0.5336607526    0.0317672242         -0.4293
H637       H    1.1145629286    0.5337786186    0.0307843765          -0.433
H638       H    1.1165257317    0.4663717893   -0.0316973718           0.553
H639       H    1.1641409351    0.4647561087   -0.0300431008          0.5577
C640       C    1.2164187049    0.5134107374    0.0196293668         -0.4257
C641       C    1.2453296808    0.5135146929    0.0176694409         -0.4256
C642       C    1.2594997000    0.4986028847   -0.0030181416          -0.433
C643       C    1.2429020171    0.4822953921   -0.0204656305          0.5609
C644       C    1.2143663134    0.4821615205   -0.0186580127          0.5607
C645       C    1.2884215551    0.5000865737   -0.0082619926         -0.4359
H646       H    1.2567821207    0.5257527339    0.0341909140         -0.4185
H647       H    1.2072615332    0.5261632120    0.0371672037         -0.4193
H648       H    1.2043936607    0.4692656116   -0.0355102997          0.5538
H649       H    1.2514090008    0.4701107437   -0.0388056198          0.5537
C650       C    1.3050812319    0.5238652782   -0.0026685048          0.5579
C651       C    1.3327411558    0.5243813829   -0.0115188823          0.5527
C652       C    1.3447221287    0.5005576686   -0.0245871425           0.555
C653       C    1.3285969080    0.4763292050   -0.0295003556           0.562
C654       C    1.3010946943    0.4770473986   -0.0212411639         -0.4338
C655       C    1.3728141823    0.4916807962   -0.0229879040           0.562
H656       H    1.3459300945    0.5438403162   -0.0089285500          0.5461
C657       C    1.2945745255    0.5531245277    0.0091973580          0.5521
H658       H    1.2896088211    0.4567827515   -0.0249991014         -0.4276
H659       H    1.3374145627    0.4569587853   -0.0399509298          -0.436
C660       C    1.3886378290    0.5000000000    0.0000000000          -0.424
H661       H    1.3795377188    0.5135088924    0.0172700116         -0.4182
H662       H    1.3825866153    0.4797195497   -0.0409197134           0.555
H663       H    1.2726813592    0.5585975604    0.0018733795          0.5428
H664       H    1.3082460276    0.5710707108    0.0018921812           0.539
H665       H    1.2952316624    0.5532441642    0.0329522829         -0.4303
C592       C    1.0000000000    0.5000000000   -0.3886378290          0.5601
C593       C    1.0246141341    0.5045163384   -0.3739445642         -0.4352
C594       C    1.0244750102    0.5053332785   -0.3449509347         -0.4328
C595       C    0.9998347774    0.5014274947   -0.3294908065         -0.4352
C596       C    0.9755651902    0.4964387755   -0.3449224879          0.5597
C597       C    0.9756082190    0.4955034648   -0.3734519758          0.5572
C598       C    0.9989978566    0.5017786060   -0.3001227682         -0.4332
H599       H    1.0454337532    0.5088304509   -0.3347634089         -0.4293
H600       H    1.0450075159    0.5079370284   -0.3854370714          -0.433
H601       H    0.9546311105    0.4912111546   -0.3834742683           0.553
H602       H    0.9541511171    0.4934731543   -0.3358590649          0.5577
C603       C    1.0218317281    0.5094093340   -0.2835812951         -0.4257
C604       C    1.0208710079    0.5076978630   -0.2546703192         -0.4256
C605       C    0.9972049524    0.4981975521   -0.2405003000          -0.433
C606       C    0.9740931733    0.4921813363   -0.2570979829          0.5609
C607       C    0.9749471349    0.4937801338   -0.2856336866          0.5607
C608       C    0.9956530299    0.4929734883   -0.2115784449         -0.4359
H609       H    1.0400492732    0.5151088589   -0.2432178793         -0.4185
H610       H    1.0419883639    0.5174037925   -0.2927384668         -0.4193
H611       H    0.9550360824    0.4864416028   -0.2956063393          0.5538
H612       H    0.9539871226    0.4832053912   -0.2485909992          0.5537
C613       C    1.0187350947    0.4849777282   -0.1949187681          0.5579
C614       C    1.0144362343    0.4772243196   -0.1672588442          0.5527
C615       C    0.9873171880    0.4789290520   -0.1552778713           0.555
C616       C    0.9642190840    0.4877401645   -0.1714030920           0.562
C617       C    0.9692444682    0.4943337646   -0.1989053057         -0.4338
C618       C    0.9806730899    0.4850292477   -0.1271858177           0.562
H619       H    1.0322620451    0.4690023747   -0.1540699055          0.5461
C620       C    1.0498031116    0.4793491668   -0.2054254745          0.5521
H621       H    0.9501132841    0.5020003027   -0.2103911789         -0.4276
H622       H    0.9422628761    0.4892739814   -0.1625854373          -0.436
C623       C    1.0000000000    0.5000000000   -0.1113621710          -0.424
H624       H    1.0206524152    0.5073635060   -0.1204622812         -0.4182
H625       H    0.9609741552    0.4762786372   -0.1174133847           0.555
H626       H    1.0505087561    0.4702334215   -0.2273186408          0.5428
H627       H    1.0610568328    0.4635762516   -0.1917539724           0.539
H628       H    1.0626129180    0.4993546569   -0.2047683376         -0.4303
C555       C    1.0000000000    0.5000000000    0.3886378290          0.5601
C556       C    1.0246141341    0.4954836616    0.3739445642         -0.4352
C557       C    1.0244750102    0.4946667215    0.3449509347         -0.4328
C558       C    0.9998347774    0.4985725053    0.3294908065         -0.4352
C559       C    0.9755651902    0.5035612245    0.3449224879          0.5597
C560       C    0.9756082190    0.5044965352    0.3734519758          0.5572
C561       C    0.9989978566    0.4982213940    0.3001227682         -0.4332
H562       H    1.0454337532    0.4911695491    0.3347634089         -0.4293
H563       H    1.0450075159    0.4920629716    0.3854370714          -0.433
H564       H    0.9546311105    0.5087888454    0.3834742683           0.553
H565       H    0.9541511171    0.5065268457    0.3358590649          0.5577
C566       C    1.0218317281    0.4905906660    0.2835812951         -0.4257
C567       C    1.0208710079    0.4923021370    0.2546703192         -0.4256
C568       C    0.9972049524    0.5018024479    0.2405003000          -0.433
C569       C    0.9740931733    0.5078186637    0.2570979829          0.5609
C570       C    0.9749471349    0.5062198662    0.2856336866          0.5607
C571       C    0.9956530299    0.5070265117    0.2115784449         -0.4359
H572       H    1.0400492732    0.4848911411    0.2432178793         -0.4185
H573       H    1.0419883639    0.4825962075    0.2927384668         -0.4193
H574       H    0.9550360824    0.5135583972    0.2956063393          0.5538
H575       H    0.9539871226    0.5167946088    0.2485909992          0.5537
C576       C    1.0187350947    0.5150222718    0.1949187681          0.5579
C577       C    1.0144362343    0.5227756804    0.1672588442          0.5527
C578       C    0.9873171880    0.5210709480    0.1552778713           0.555
C579       C    0.9642190840    0.5122598355    0.1714030920           0.562
C580       C    0.9692444682    0.5056662354    0.1989053057         -0.4338
C581       C    0.9806730899    0.5149707523    0.1271858177           0.562
H582       H    1.0322620451    0.5309976253    0.1540699055          0.5461
C583       C    1.0498031116    0.5206508332    0.2054254745          0.5521
H584       H    0.9501132841    0.4979996973    0.2103911789         -0.4276
H585       H    0.9422628761    0.5107260186    0.1625854373          -0.436
C586       C    1.0000000000    0.5000000000    0.1113621710          -0.424
H587       H    1.0206524152    0.4926364940    0.1204622812         -0.4182
H588       H    0.9609741552    0.5237213628    0.1174133847           0.555
H589       H    1.0505087561    0.5297665785    0.2273186408          0.5428
H590       H    1.0610568328    0.5364237484    0.1917539724           0.539
H591       H    1.0626129180    0.5006453431    0.2047683376         -0.4303
C518       C    1.0000000000   -0.1113621710    0.5000000000          0.5601
C519       C    1.0246141341   -0.1260554358    0.5045163384         -0.4352
C520       C    1.0244750102   -0.1550490653    0.5053332785         -0.4328
C521       C    0.9998347774   -0.1705091935    0.5014274947         -0.4352
C522       C    0.9755651902   -0.1550775121    0.4964387755          0.5597
C523       C    0.9756082190   -0.1265480242    0.4955034648          0.5572
C524       C    0.9989978566   -0.1998772318    0.5017786060         -0.4332
H525       H    1.0454337532   -0.1652365911    0.5088304509         -0.4293
H526       H    1.0450075159   -0.1145629286    0.5079370284          -0.433
H527       H    0.9546311105   -0.1165257317    0.4912111546           0.553
H528       H    0.9541511171   -0.1641409351    0.4934731543          0.5577
C529       C    1.0218317281   -0.2164187049    0.5094093340         -0.4257
C530       C    1.0208710079   -0.2453296808    0.5076978630         -0.4256
C531       C    0.9972049524   -0.2594997000    0.4981975521          -0.433
C532       C    0.9740931733   -0.2429020171    0.4921813363          0.5609
C533       C    0.9749471349   -0.2143663134    0.4937801338          0.5607
C534       C    0.9956530299   -0.2884215551    0.4929734883         -0.4359
H535       H    1.0400492732   -0.2567821207    0.5151088589         -0.4185
H536       H    1.0419883639   -0.2072615332    0.5174037925         -0.4193
H537       H    0.9550360824   -0.2043936607    0.4864416028          0.5538
H538       H    0.9539871226   -0.2514090008    0.4832053912          0.5537
C539       C    1.0187350947   -0.3050812319    0.4849777282          0.5579
C540       C    1.0144362343   -0.3327411558    0.4772243196          0.5527
C541       C    0.9873171880   -0.3447221287    0.4789290520           0.555
C542       C    0.9642190840   -0.3285969080    0.4877401645           0.562
C543       C    0.9692444682   -0.3010946943    0.4943337646         -0.4338
C544       C    0.9806730899   -0.3728141823    0.4850292477           0.562
H545       H    1.0322620451   -0.3459300945    0.4690023747          0.5461
C546       C    1.0498031116   -0.2945745255    0.4793491668          0.5521
H547       H    0.9501132841   -0.2896088211    0.5020003027         -0.4276
H548       H    0.9422628761   -0.3374145627    0.4892739814          -0.436
C549       C    1.0000000000   -0.3886378290    0.5000000000          -0.424
H550       H    1.0206524152   -0.3795377188    0.5073635060         -0.4182
H551       H    0.9609741552   -0.3825866153    0.4762786372           0.555
H552       H    1.0505087561   -0.2726813592    0.4702334215          0.5428
H553       H    1.0610568328   -0.3082460276    0.4635762516           0.539
H554       H    1.0626129180   -0.2952316624    0.4993546569         -0.4303
C481       C    1.0000000000    0.3886378290    0.5000000000          0.5601
C482       C    0.9990173711    0.3739445642    0.4749942537         -0.4352
C483       C    0.9998449500    0.3449509347    0.4749511289         -0.4328
C484       C    1.0014290329    0.3294908065    0.4998486569         -0.4352
C485       C    1.0018753031    0.3449224879    0.5246216468          0.5597
C486       C    1.0009532664    0.3734519758    0.5247844527          0.5572
C487       C    1.0019548722    0.3001227682    0.5005883924         -0.4332
H488       H    0.9986682499    0.3347634089    0.4537352268         -0.4293
H489       H    0.9978898329    0.3854370714    0.4543467405          -0.433
H490       H    1.0013581439    0.3834742683    0.5461923737           0.553
H491       H    1.0036703530    0.3358590649    0.5461654448          0.5577
C492       C    1.0044008590    0.2835812951    0.4766378006         -0.4257
C493       C    1.0029412710    0.2546703192    0.4779499435         -0.4256
C494       C    0.9988532770    0.2405003000    0.5031218802          -0.433
C495       C    0.9980434754    0.2570979829    0.5269901313          0.5609
C496       C    0.9994164993    0.2856336866    0.5258068269          0.5607
C497       C    0.9940957755    0.2115784449    0.5057799783         -0.4359
H498       H    1.0059732694    0.2432178793    0.4576143662         -0.4185
H499       H    1.0077879436    0.2927384668    0.4552198411         -0.4193
H500       H    0.9966156546    0.2956063393    0.5468415438          0.5538
H501       H    0.9936876441    0.2485909992    0.5485736341          0.5537
C502       C    0.9812401073    0.1949187681    0.4850087075          0.5579
C503       C    0.9746160903    0.1672588442    0.4909009009          0.5527
C504       C    0.9822172981    0.1552778713    0.5169886457           0.555
C505       C    0.9958720460    0.1714030920    0.5375970412           0.562
C506       C    1.0012053216    0.1989053057    0.5312498985         -0.4338
C507       C    0.9896242288    0.1271858177    0.5221358589           0.562
H508       H    0.9626906067    0.1540699055    0.4753078656          0.5461
C509       C    0.9689456367    0.2054254745    0.4559269543          0.5521
H510       H    1.0128746928    0.2103911789    0.5482382413         -0.4276
H511       H    1.0021760583    0.1625854373    0.5586846464          -0.436
C512       C    1.0000000000    0.1113621710    0.5000000000          -0.424
H513       H    1.0026628889    0.1204622812    0.4782364411         -0.4182
H514       H    0.9853991244    0.1174133847    0.5432727864           0.555
H515       H    0.9598965804    0.2273186408    0.4572343669          0.5428
H516       H    0.9510913963    0.1917539724    0.4483998570           0.539
H517       H    0.9856609280    0.2047683376    0.4390476827         -0.4303
C444       C    0.6113621710   -0.0000000000    0.5000000000          0.5601
C445       C    0.6260554358   -0.0171246148    0.4817516993         -0.4352
C446       C    0.6550490653   -0.0165276245    0.4811769393         -0.4328
C447       C    0.6705091935    0.0009804961    0.4989494444         -0.4352
C448       C    0.6550775121    0.0175473995    0.5173732847          0.5597
C449       C    0.6265480242    0.0169574531    0.5181003479          0.5572
C450       C    0.6998772318    0.0018624015    0.4991638233         -0.4332
H451       H    0.6652365911   -0.0313159884    0.4659190425         -0.4293
H452       H    0.6145629286   -0.0315034630    0.4668910174          -0.433
H453       H    0.6165257317    0.0312884974    0.5340089675           0.553
H454       H    0.6641409351    0.0330177494    0.5324738049          0.5577
C455       C    0.7164187049   -0.0119805918    0.4794664825         -0.4257
C456       C    0.7453296808   -0.0122236878    0.4814140504         -0.4256
C457       C    0.7594997000    0.0011789051    0.5031098702          -0.433
C458       C    0.7429020171    0.0162041060    0.5216730737          0.5609
C459       C    0.7143663134    0.0164662091    0.5198795560          0.5607
C460       C    0.7884215551   -0.0006740059    0.5082349094         -0.4359
H461       H    0.7567821207   -0.0232556087    0.4640639657         -0.4185
H462       H    0.7072615332   -0.0234533523    0.4610660180         -0.4193
H463       H    0.7043936607    0.0281308019    0.5376064090          0.5538
H464       H    0.7514090008    0.0270534238    0.5408332711          0.5537
C465       C    0.8050812319   -0.0239946367    0.5009642784          0.5579
C466       C    0.8327411558   -0.0251389358    0.5097555311          0.5527
C467       C    0.8447221287   -0.0023050680    0.5244852043           0.555
C468       C    0.8285969080    0.0215125686    0.5311092737           0.562
C469       C    0.8010946943    0.0213836463    0.5228199174         -0.4338
C470       C    0.8728141823    0.0066630707    0.5235214024           0.562
H471       H    0.8459300945   -0.0443643419    0.5057877022          0.5461
C472       C    0.7945745255   -0.0523357959    0.4870473434          0.5521
H473       H    0.7896088211    0.0413296772    0.5280097023         -0.4276
H474       H    0.8374145627    0.0400906092    0.5429111409          -0.436
C475       C    0.8886378290   -0.0000000000    0.5000000000          -0.424
H476       H    0.8795377188   -0.0122463122    0.4818128806         -0.4182
H477       H    0.8825866153    0.0173185851    0.5422585639           0.555
H478       H    0.7726813592   -0.0583159001    0.4939634913          0.5428
H479       H    0.8082460276   -0.0707561219    0.4930575584           0.539
H480       H    0.7952316624   -0.0507655106    0.4633440741         -0.4303
C407       C    1.1113621710   -0.0000000000    0.5000000000          0.5601
C408       C    1.1260554358   -0.0083289405    0.4764016598         -0.4352
C409       C    1.1550490653   -0.0075510745    0.4761158785         -0.4328
C410       C    1.1705091935    0.0013204704    0.4994330806         -0.4352
C411       C    1.1550775121    0.0090682223    0.5229675771          0.5597
C412       C    1.1265480242    0.0082354884    0.5233956095          0.5572
C413       C    1.1998772318    0.0020414422    0.4999843656         -0.4332
H414       H    1.1652365911   -0.0149453654    0.4561954472         -0.4293
H415       H    1.1145629286   -0.0155082838    0.4570096983          -0.433
H416       H    1.1165257317    0.0149491832    0.5437275870           0.553
H417       H    1.1641409351    0.0171501480    0.5430185100          0.5577
C418       C    1.2164187049   -0.0027001971    0.4763807524         -0.4257
C419       C    1.2453296808   -0.0037067947    0.4780656494         -0.4256
C420       C    1.2594997000   -0.0001728578    0.5033213295          -0.433
C421       C    1.2429020171    0.0061075439    0.5263627214          0.5609
C422       C    1.2143663134    0.0070695211    0.5248264911          0.5607
C423       C    1.2884215551   -0.0039322680    0.5072667245         -0.4359
H424       H    1.2567821207   -0.0068202171    0.4577423789         -0.4185
H425       H    1.2072615332   -0.0057942825    0.4549185073         -0.4193
H426       H    1.2043936607    0.0106103955    0.5457493555          0.5538
H427       H    1.2514090008    0.0083250808    0.5482694189          0.5537
C428       C    1.3050812319   -0.0223524243    0.4912226684          0.5579
C429       C    1.3327411558   -0.0269391679    0.4988093230          0.5527
C430       C    1.3447221287   -0.0119675244    0.5214852724           0.555
C431       C    1.3285969080    0.0071678808    0.5371375686           0.562
C432       C    1.3010946943    0.0103870840    0.5294977532         -0.4338
C433       C    1.3728141823   -0.0033702504    0.5242135147           0.562
H434       H    1.3459300945   -0.0429403135    0.4874372850          0.5461
C435       C    1.2945745255   -0.0426925340    0.4670735003          0.5521
H436       H    1.2896088211    0.0265559273    0.5422784622         -0.4276
H437       H    1.3374145627    0.0194225314    0.5554201067          -0.436
C438       C    1.3886378290   -0.0000000000    0.5000000000          -0.424
H439       H    1.3795377188   -0.0038880699    0.4784216223         -0.4182
H440       H    1.3825866153   -0.0011598070    0.5456549500           0.555
H441       H    1.2726813592   -0.0509509783    0.4709968718          0.5428
H442       H    1.3082460276   -0.0619737909    0.4651592836           0.539
H443       H    1.2952316624   -0.0317124148    0.4460081791         -0.4303
C370       C    0.0000000000   -0.1113621710   -0.0000000000          0.5601
C371       C    0.0212131755   -0.1260554358   -0.0132760722         -0.4352
C372       C    0.0216617573   -0.1550490653   -0.0125792789         -0.4328
C373       C    0.0008413124   -0.1705091935    0.0011650035         -0.4352
C374       C   -0.0204363366   -0.1550775121    0.0138599566          0.5597
C375       C   -0.0210357125   -0.1265480242    0.0131406472          0.5572
C376       C    0.0004605754   -0.1998772318    0.0019888693         -0.4332
H377       H    0.0394894794   -0.1652365911   -0.0241409157         -0.4293
H378       H    0.0385720430   -0.1145629286   -0.0245126581          -0.433
H379       H   -0.0394135343   -0.1165257317    0.0241278523           0.553
H380       H   -0.0382414179   -0.1641409351    0.0261211359          0.5577
C381       C    0.0224614261   -0.2164187049   -0.0077874422         -0.4257
C382       C    0.0205975274   -0.2453296808   -0.0084022575         -0.4256
C383       C   -0.0032790515   -0.2594997000    0.0005558155          -0.433
C384       C   -0.0243955569   -0.2429020171    0.0117111902          0.5609
C385       C   -0.0226864780   -0.2143663134    0.0123148896          0.5607
C386       C   -0.0079495054   -0.2884215551   -0.0022524165         -0.4359
H387       H    0.0397522104   -0.2567821207   -0.0158739934         -0.4185
H388       H    0.0427318730   -0.2072615332   -0.0154887612         -0.4193
H389       H   -0.0423330716   -0.2043936607    0.0203345782          0.5538
H390       H   -0.0452909618   -0.2514090008    0.0186540223          0.5537
C391       C    0.0036900254   -0.3050812319   -0.0237288039          0.5579
C392       C   -0.0047144720   -0.3327411558   -0.0265501456          0.5527
C393       C   -0.0235784394   -0.3447221287   -0.0069925506           0.555
C394       C   -0.0346796213   -0.3285969080    0.0150964030           0.562
C395       C   -0.0265215568   -0.3010946943    0.0165715413         -0.4338
C396       C   -0.0243655815   -0.3728141823    0.0019928172           0.562
H397       H    0.0028932330   -0.3459300945   -0.0446466296          0.5461
C398       C    0.0228206629   -0.2945745255   -0.0488469465          0.5521
H399       H   -0.0354674276   -0.2896088211    0.0351389701         -0.4276
H400       H   -0.0498486618   -0.3374145627    0.0310440633          -0.436
C401       C   -0.0000000000   -0.3886378290    0.0000000000          -0.424
H402       H    0.0202105840   -0.3795377188   -0.0085015157         -0.4182
H403       H   -0.0448084762   -0.3825866153    0.0088272349           0.555
H404       H    0.0171902886   -0.2726813592   -0.0560506701          0.5428
H405       H    0.0204827928   -0.3082460276   -0.0680814327           0.539
H406       H    0.0457738732   -0.2952316624   -0.0427264146         -0.4303
C333       C   -0.0000000000    0.1113621710    0.0000000000          0.5601
C334       C   -0.0162924617    0.1260554358    0.0189949625         -0.4352
C335       C   -0.0156703955    0.1550490653    0.0195424843         -0.4328
C336       C    0.0010264408    0.1705091935    0.0010057132         -0.4352
C337       C    0.0167539072    0.1550775121   -0.0181397036          0.5597
C338       C    0.0161320752    0.1265480242   -0.0188396911          0.5572
C339       C    0.0018978908    0.1998772318    0.0007521578         -0.4332
H340       H   -0.0297625047    0.1652365911    0.0354456783         -0.4293
H341       H   -0.0299932056    0.1145629286    0.0344830470          -0.433
H342       H    0.0297382566    0.1165257317   -0.0353725322           0.553
H343       H    0.0315343510    0.1641409351   -0.0339161391          0.5577
C344       C   -0.0110515028    0.2164187049    0.0210481402         -0.4257
C345       C   -0.0113813446    0.2453296808    0.0191133738         -0.4256
C346       C    0.0010388258    0.2594997000   -0.0031594225          -0.433
C347       C    0.0152199036    0.2429020171   -0.0223752030          0.5609
C348       C    0.0155618529    0.2143663134   -0.0205951820          0.5607
C349       C   -0.0010411467    0.2884215551   -0.0081965865         -0.4359
H350       H   -0.0216273118    0.2567821207    0.0369388858         -0.4185
H351       H   -0.0216909543    0.2072615332    0.0399426738         -0.4193
H352       H    0.0264230322    0.2043936607   -0.0388253447          0.5538
H353       H    0.0252026010    0.2514090008   -0.0420008652          0.5537
C354       C   -0.0240137600    0.3050812319    0.0001084079          0.5579
C355       C   -0.0255495797    0.3327411558   -0.0086229611          0.5527
C356       C   -0.0033964028    0.3447221287   -0.0243578123           0.555
C357       C    0.0201015992    0.3285969080   -0.0320390890           0.562
C358       C    0.0203430509    0.3010946943   -0.0237522470         -0.4338
C359       C    0.0056058342    0.3728141823   -0.0237955353           0.562
H360       H   -0.0445785755    0.3459300945   -0.0038003864          0.5461
C361       C   -0.0517050332    0.2945745255    0.0152773158          0.5521
H362       H    0.0400373734    0.2896088211   -0.0298277450         -0.4276
H363       H    0.0381339671    0.3374145627   -0.0446589690          -0.436
C364       C    0.0000000000    0.3886378290    0.0000000000          -0.424
H365       H   -0.0114217603    0.3795377188    0.0187159522         -0.4182
H366       H    0.0154138166    0.3825866153   -0.0429899276           0.555
H367       H   -0.0579880801    0.2726813592    0.0086351724          0.5428
H368       H   -0.0703754232    0.3082460276    0.0100958455           0.539
H369       H   -0.0490776052    0.2952316624    0.0388867926         -0.4303
C296       C   -0.1113621710   -0.0000000000    0.0000000000          0.5601
C297       C   -0.1260554358   -0.0232313302    0.0093036663         -0.4352
C298       C   -0.1550490653   -0.0229331020    0.0100768457         -0.4328
C299       C   -0.1705091935    0.0004447804    0.0013664589         -0.4352
C300       C   -0.1550775121    0.0232448002   -0.0083319574          0.5597
C301       C   -0.1265480242    0.0230173089   -0.0092402003          0.5572
C302       C   -0.1998772318    0.0013346760    0.0015447882         -0.4332
H303       H   -0.1652365911   -0.0427834385    0.0176572985         -0.4293
H304       H   -0.1145629286   -0.0425426673    0.0166971364          -0.433
H305       H   -0.1165257317    0.0427281040   -0.0176036662           0.553
H306       H   -0.1641409351    0.0436467577   -0.0154816125          0.5577
C307       C   -0.2164187049   -0.0195346227    0.0135483739         -0.4257
C308       C   -0.2453296808   -0.0189320468    0.0116804824         -0.4256
C309       C   -0.2594997000    0.0023825127   -0.0023205050          -0.433
C310       C   -0.2429020171    0.0238440971   -0.0127966483          0.5609
C311       C   -0.2143663134    0.0233238391   -0.0110603490          0.5607
C312       C   -0.2884215551    0.0028686111   -0.0077484893         -0.4359
H313       H   -0.2567821207   -0.0362617470    0.0227443972         -0.4185
H314       H   -0.2072615332   -0.0377076944    0.0253780314         -0.4193
H315       H   -0.2043936607    0.0413861567   -0.0221984245          0.5538
H316       H   -0.2514090008    0.0417731220   -0.0255783121          0.5537
C317       C   -0.3050812319   -0.0213400779   -0.0110124248          0.5579
C318       C   -0.3327411558   -0.0186626448   -0.0194638683          0.5527
C319       C   -0.3447221287    0.0082565355   -0.0231661000           0.555
C320       C   -0.3285969080    0.0326424936   -0.0191061542           0.562
C321       C   -0.3010946943    0.0290231439   -0.0116475782         -0.4338
C322       C   -0.3728141823    0.0159775637   -0.0185032521           0.562
H323       H   -0.3459300945   -0.0377640983   -0.0239909401          0.5461
C324       C   -0.2945745255   -0.0529073799   -0.0103738130          0.5521
H325       H   -0.2896088211    0.0492940479   -0.0079235395         -0.4276
H326       H   -0.3374145627    0.0544673237   -0.0219529863          -0.436
C327       C   -0.3886378290   -0.0000000000    0.0000000000          -0.424
H328       H   -0.3795377188   -0.0187840347    0.0113094436         -0.4182
H329       H   -0.3825866153    0.0335521897   -0.0309833855           0.555
H330       H   -0.2726813592   -0.0554051617   -0.0191690295          0.5428
H331       H   -0.3082460276   -0.0670631278   -0.0236043042           0.539
H332       H   -0.2952316624   -0.0614994941    0.0117731133         -0.4303
C259       C    0.1113621710   -0.0000000000    0.0000000000          0.5601
C260       C    0.1260554358   -0.0249986086   -0.0011499894         -0.4352
C261       C    0.1550490653   -0.0249711148   -0.0019782349         -0.4328
C262       C    0.1705091935   -0.0000291222   -0.0014367295         -0.4352
C263       C    0.1550775121    0.0246919083    0.0002278535          0.5597
C264       C    0.1265480242    0.0247756185    0.0011604039          0.5572
C265       C    0.1998772318    0.0007526984   -0.0018976764         -0.4332
H266       H    0.1652365911   -0.0462101645   -0.0026121813         -0.4293
H267       H    0.1145629286   -0.0456671477   -0.0017845251          -0.433
H268       H    0.1165257317    0.0461402751    0.0025797191           0.553
H269       H    0.1641409351    0.0463103111    0.0002736133          0.5577
C270       C    0.2164187049   -0.0229026664   -0.0063739932         -0.4257
C271       C    0.2453296808   -0.0217195611   -0.0048079861         -0.4256
C272       C    0.2594997000    0.0030129092    0.0014083635          -0.433
C273       C    0.2429020171    0.0267255412    0.0042474256          0.5609
C274       C    0.2143663134    0.0256634362    0.0027786380          0.5607
C275       C    0.2884215551    0.0052562900    0.0063749064         -0.4359
H276       H    0.2567821207   -0.0417231439   -0.0095603953         -0.4185
H277       H    0.2072615332   -0.0439544682   -0.0115723558         -0.4193
H278       H    0.2043936607    0.0463833009    0.0073602593          0.5538
H279       H    0.2514090008    0.0478598037    0.0104251120          0.5537
C280       C    0.3050812319   -0.0165341189    0.0174153764          0.5579
C281       C    0.3327411558   -0.0112273063    0.0245170160          0.5527
C282       C    0.3447221287    0.0154128938    0.0191645839           0.555
C283       C    0.3285969080    0.0371090544    0.0073140682           0.562
C284       C    0.3010946943    0.0312390476    0.0014597477         -0.4338
C285       C    0.3728141823    0.0211720605    0.0122227956           0.562
H286       H    0.3459300945   -0.0277790847    0.0350715666          0.5461
C287       C    0.2945745255   -0.0465570514    0.0271891119          0.5521
H288       H    0.2896088211    0.0491592608   -0.0087208206         -0.4276
H289       H    0.3374145627    0.0586568250    0.0028283973          -0.436
C290       C    0.3886378290   -0.0000000000    0.0000000000          -0.424
H291       H    0.3795377188   -0.0214578060   -0.0045062219         -0.4182
H292       H    0.3825866153    0.0418724997    0.0182322072           0.555
H293       H    0.2726813592   -0.0460248450    0.0363166255          0.5428
H294       H    0.3082460276   -0.0555769698    0.0443376444           0.539
H295       H    0.2952316624   -0.0619518502    0.0090973750         -0.4303
C222       C   -0.0000000000    0.0000000000   -0.1113621710          0.5601
C223       C    0.0021768379    0.0249301882   -0.1260554358         -0.4352
C224       C    0.0030032527    0.0248686642   -0.1550490653         -0.4328
C225       C    0.0014367120   -0.0000299738   -0.1705091935         -0.4352
C226       C   -0.0012428718   -0.0246616610   -0.1550775121          0.5597
C227       C   -0.0021780753   -0.0247069585   -0.1265480242          0.5572
C228       C    0.0018651245   -0.0008300851   -0.1998772318         -0.4332
H229       H    0.0045099091    0.0460636898   -0.1652365911         -0.4293
H230       H    0.0036606266    0.0455551613   -0.1145629286          -0.433
H231       H   -0.0044746009   -0.0459951942   -0.1165257317           0.553
H232       H   -0.0021774361   -0.0462599022   -0.1641409351          0.5577
C233       C    0.0073102494    0.0226212328   -0.2164187049         -0.4257
C234       C    0.0056969230    0.0215035144   -0.2453296808         -0.4256
C235       C   -0.0015310487   -0.0029524565   -0.2594997000          -0.433
C236       C   -0.0053426580   -0.0265283090   -0.2429020171          0.5609
C237       C   -0.0038314438   -0.0255274916   -0.2143663134          0.5607
C238       C   -0.0065856289   -0.0049897402   -0.2884215551         -0.4359
H239       H    0.0112677635    0.0412947867   -0.2567821207         -0.4185
H240       H    0.0133697639    0.0434415021   -0.2072615332         -0.4193
H241       H   -0.0092610908   -0.0460414619   -0.2043936607          0.5538
H242       H   -0.0123840585   -0.0473907044   -0.2514090008          0.5537
C243       C   -0.0167208479    0.0172361733   -0.3050812319          0.5579
C244       C   -0.0240346727    0.0122258328   -0.3327411558          0.5527
C245       C   -0.0197820817   -0.0146119066   -0.3447221287           0.555
C246       C   -0.0088336270   -0.0367769568   -0.3285969080           0.562
C247       C   -0.0027429107   -0.0311526146   -0.3010946943         -0.4338
C248       C   -0.0130829521   -0.0206516160   -0.3728141823           0.562
H249       H   -0.0338997700    0.0291975670   -0.3459300945          0.5461
C250       C   -0.0252519222    0.0476355672   -0.2945745255          0.5521
H251       H    0.0066922573   -0.0494762502   -0.2896088211         -0.4276
H252       H   -0.0052376883   -0.0584909358   -0.3374145627          -0.436
C253       C   -0.0000000000    0.0000000000   -0.3886378290          -0.424
H254       H    0.0053846518    0.0212543877   -0.3795377188         -0.4182
H255       H   -0.0199383834   -0.0410874735   -0.3825866153           0.555
H256       H   -0.0343935994    0.0474790897   -0.2726813592          0.5428
H257       H   -0.0420150991    0.0573529226   -0.3082460276           0.539
H258       H   -0.0065425244    0.0622735044   -0.2952316624         -0.4303
C185       C    0.0000000000    0.0000000000    0.1113621710          0.5601
C186       C    0.0245823972    0.0046860065    0.1260554358         -0.4352
C187       C    0.0244376418    0.0055019675    0.1550490653         -0.4328
C188       C   -0.0001750648    0.0014263211    0.1705091935         -0.4352
C189       C   -0.0244096651   -0.0037296784    0.1550775121          0.5597
C190       C   -0.0243601860   -0.0046646701    0.1265480242          0.5572
C191       C   -0.0010143874    0.0017716514    0.1998772318         -0.4332
H192       H    0.0453717646    0.0091436193    0.1652365911         -0.4293
H193       H    0.0449516998    0.0082472781    0.1145629286          -0.433
H194       H   -0.0453071894   -0.0091015673    0.1165257317           0.553
H195       H   -0.0458027735   -0.0068429322    0.1641409351          0.5577
C196       C    0.0217663081    0.0095596941    0.2164187049         -0.4257
C197       C    0.0208174155    0.0078416373    0.2453296808         -0.4256
C198       C   -0.0027825488   -0.0018216838    0.2594997000          -0.433
C199       C   -0.0258522814   -0.0079971696    0.2429020171          0.5609
C200       C   -0.0250093678   -0.0063925199    0.2143663134          0.5607
C201       C   -0.0042984015   -0.0070563277    0.2884215551         -0.4359
H202       H    0.0399441074    0.0153847385    0.2567821207         -0.4185
H203       H    0.0418673227    0.0176929924    0.2072615332         -0.4193
H204       H   -0.0448693292   -0.0138682124    0.2043936607          0.5538
H205       H   -0.0458959424   -0.0171115822    0.2514090008          0.5537
C206       C    0.0188382649   -0.0148926895    0.3050812319          0.5579
C207       C    0.0145929857   -0.0226755650    0.3327411558          0.5527
C208       C   -0.0125371739   -0.0211579262    0.3447221287           0.555
C209       C   -0.0356955028   -0.0125063420    0.3285969080           0.562
C210       C   -0.0307157174   -0.0058782363    0.3010946943         -0.4338
C211       C   -0.0192231899   -0.0151037032    0.3728141823           0.562
H212       H    0.0324750831   -0.0307743611    0.3459300945          0.5461
C213       C    0.0499443656   -0.0203068260    0.2945745255          0.5521
H214       H   -0.0498993263    0.0016561625    0.2896088211         -0.4276
H215       H   -0.0576617680   -0.0111240041    0.3374145627          -0.436
C216       C   -0.0000000000    0.0000000000    0.3886378290          -0.424
H217       H    0.0206011343    0.0075057804    0.3795377188         -0.4182
H218       H   -0.0388612988   -0.0239899785    0.3825866153           0.555
H219       H    0.0507128690   -0.0294174873    0.2726813592          0.5428
H220       H    0.0613066125   -0.0360017437    0.3082460276           0.539
H221       H    0.0626158799   -0.0002134564    0.2952316624         -0.4303
loop_
_geom_bond_atom_site_label_1
_geom_bond_atom_site_label_2
_geom_bond_distance
_geom_bond_site_symmetry_2
_ccdc_geom_bond_type
Zn1          O5 1.942       .   S
Zn1          O6 1.922       .   S
Zn1         O10 1.922       .   S
Zn1         O17 1.922       .   S
Zn2          O5 1.942       .   S
Zn2          O7 1.922       .   S
Zn2          O9 1.922       .   S
Zn2         O13 1.922       .   S
Zn3          O5 1.942       .   S
Zn3          O8 1.922       .   S
Zn3         O11 1.922       .   S
Zn3         O14 1.922       .   S
Zn4          O5 1.942       .   S
Zn4         O12 1.922       .   S
Zn4         O15 1.922       .   S
Zn4         O16 1.922       .   S
O6          C18 1.304       .   A
O7          C19 1.304       .   A
O8          C20 1.304       .   A
O9          C18 1.304       .   A
O10         C20 1.304       .   A
O11         C19 1.304       .   A
O12         C21 1.304       .   A
O13         C22 1.304       .   A
O14         C21 1.304       .   A
O15         C22 1.304       .   A
O16         C23 1.304       .   A
O17         C23 1.304       .   A
C18        C333 1.540       .   S
C19        C185 1.540       .   S
C20        C296 1.540       .   S
C21        C370 1.540       .   S
C22        C259 1.540       .   S
C23        C222 1.540       .   S
Zn24        O28 1.942       .   S
Zn24        O29 1.922       .   S
Zn24        O33 1.922       .   S
Zn24        O40 1.922       .   S
Zn25        O28 1.942       .   S
Zn25        O30 1.922       .   S
Zn25        O32 1.922       .   S
Zn25        O36 1.922       .   S
Zn26        O28 1.942       .   S
Zn26        O31 1.922       .   S
Zn26        O34 1.922       .   S
Zn26        O37 1.922       .   S
Zn27        O28 1.942       .   S
Zn27        O35 1.922       .   S
Zn27        O38 1.922       .   S
Zn27        O39 1.922       .   S
O29         C41 1.304       .   A
O30         C42 1.304       .   A
O31         C43 1.304       .   A
O32         C41 1.304       .   A
O33         C43 1.304       .   A
O34         C42 1.304       .   A
O35         C44 1.304       .   A
O36         C45 1.304       .   A
O37         C44 1.304       .   A
O38         C45 1.304       .   A
O39         C46 1.304       .   A
O40         C46 1.304       .   A
C41        C216 1.540   1_655   S
C42        C407 1.540       .   S
C43        C512 1.540       .   S
C44        C253 1.540   1_656   S
C45        C518 1.540       .   S
C46        C475 1.540       .   S
Zn47        O51 1.942       .   S
Zn47        O52 1.922       .   S
Zn47        O56 1.922       .   S
Zn47        O63 1.922       .   S
Zn48        O51 1.942       .   S
Zn48        O53 1.922       .   S
Zn48        O55 1.922       .   S
Zn48        O59 1.922       .   S
Zn49        O51 1.942       .   S
Zn49        O54 1.922       .   S
Zn49        O57 1.922       .   S
Zn49        O60 1.922       .   S
Zn50        O51 1.942       .   S
Zn50        O58 1.922       .   S
Zn50        O61 1.922       .   S
Zn50        O62 1.922       .   S
O52         C64 1.304       .   A
O53         C65 1.304       .   A
O54         C66 1.304       .   A
O55         C64 1.304       .   A
O56         C66 1.304       .   A
O57         C65 1.304       .   A
O58         C67 1.304       .   A
O59         C68 1.304       .   A
O60         C67 1.304       .   A
O61         C68 1.304       .   A
O62         C69 1.304       .   A
O63         C69 1.304       .   A
C64        C364 1.540   1_655   S
C65        C586 1.540       .   S
C66        C629 1.540       .   S
C67        C401 1.540   1_665   S
C68        C666 1.540       .   S
C69        C623 1.540       .   S
Zn70        O74 1.942       .   S
Zn70        O75 1.922       .   S
Zn70        O79 1.922       .   S
Zn70        O86 1.922       .   S
Zn71        O74 1.942       .   S
Zn71        O76 1.922       .   S
Zn71        O78 1.922       .   S
Zn71        O82 1.922       .   S
Zn72        O74 1.942       .   S
Zn72        O77 1.922       .   S
Zn72        O80 1.922       .   S
Zn72        O83 1.922       .   S
Zn73        O74 1.942       .   S
Zn73        O81 1.922       .   S
Zn73        O84 1.922       .   S
Zn73        O85 1.922       .   S
O75         C87 1.304       .   A
O76         C88 1.304       .   A
O77         C89 1.304       .   A
O78         C87 1.304       .   A
O79         C89 1.304       .   A
O80         C88 1.304       .   A
O81         C90 1.304       .   A
O82         C91 1.304       .   A
O83         C90 1.304       .   A
O84         C91 1.304       .   A
O85         C92 1.304       .   A
O86         C92 1.304       .   A
C87        C481 1.540       .   S
C88        C555 1.540       .   S
C89        C740 1.540       .   S
C90        C549 1.540   1_565   S
C91        C703 1.540       .   S
C92        C592 1.540   1_556   S
Zn93        O97 1.942       .   S
Zn93        O98 1.922       .   S
Zn93       O102 1.922       .   S
Zn93       O109 1.922       .   S
Zn94        O97 1.942       .   S
Zn94        O99 1.922       .   S
Zn94       O101 1.922       .   S
Zn94       O105 1.922       .   S
Zn95        O97 1.942       .   S
Zn95       O100 1.922       .   S
Zn95       O103 1.922       .   S
Zn95       O106 1.922       .   S
Zn96        O97 1.942       .   S
Zn96       O104 1.922       .   S
Zn96       O107 1.922       .   S
Zn96       O108 1.922       .   S
O98        C110 1.304       .   A
O99        C111 1.304       .   A
O100       C112 1.304       .   A
O101       C110 1.304       .   A
O102       C112 1.304       .   A
O103       C111 1.304       .   A
O104       C113 1.304       .   A
O105       C114 1.304       .   A
O106       C113 1.304       .   A
O107       C114 1.304       .   A
O108       C115 1.304       .   A
O109       C115 1.304       .   A
C110       C777 1.540       .   S
C111       C290 1.540   1_565   S
C112       C851 1.540       .   S
C113       C814 1.540       .   S
C114       C888 1.540       .   S
C115       C327 1.540   1_665   S
Zn116      O120 1.942       .   S
Zn116      O121 1.922       .   S
Zn116      O125 1.922       .   S
Zn116      O132 1.922       .   S
Zn117      O120 1.942       .   S
Zn117      O122 1.922       .   S
Zn117      O124 1.922       .   S
Zn117      O128 1.922       .   S
Zn118      O120 1.942       .   S
Zn118      O123 1.922       .   S
Zn118      O126 1.922       .   S
Zn118      O129 1.922       .   S
Zn119      O120 1.942       .   S
Zn119      O127 1.922       .   S
Zn119      O130 1.922       .   S
Zn119      O131 1.922       .   S
O121       C133 1.304       .   A
O122       C134 1.304       .   A
O123       C135 1.304       .   A
O124       C133 1.304       .   A
O125       C135 1.304       .   A
O126       C134 1.304       .   A
O127       C136 1.304       .   A
O128       C137 1.304       .   A
O129       C136 1.304       .   A
O130       C137 1.304       .   A
O131       C138 1.304       .   A
O132       C138 1.304       .   A
C133       C438 1.540   1_465   S
C134       C808 1.540       .   S
C135       C925 1.540       .   S
C136       C444 1.540   1_565   S
C137       C993 1.540       .   S
C138       C845 1.540   1_556   S
Zn139      O143 1.942       .   S
Zn139      O144 1.922       .   S
Zn139      O148 1.922       .   S
Zn139      O155 1.922       .   S
Zn140      O143 1.942       .   S
Zn140      O145 1.922       .   S
Zn140      O147 1.922       .   S
Zn140      O151 1.922       .   S
Zn141      O143 1.942       .   S
Zn141      O146 1.922       .   S
Zn141      O149 1.922       .   S
Zn141      O152 1.922       .   S
Zn142      O143 1.942       .   S
Zn142      O150 1.922       .   S
Zn142      O153 1.922       .   S
Zn142      O154 1.922       .   S
O144       C156 1.304       .   A
O145       C157 1.304       .   A
O146       C158 1.304       .   A
O147       C156 1.304       .   A
O148       C158 1.304       .   A
O149       C157 1.304       .   A
O150       C159 1.304       .   A
O151       C160 1.304       .   A
O152       C159 1.304       .   A
O153       C160 1.304       .   A
O154       C161 1.304       .   A
O155       C161 1.304       .   A
C156      C1036 1.540       .   S
C157       C919 1.540       .   S
C158       C660 1.540   1_455   S
C159      C1030 1.540       .   S
C160       C697 1.540       .   S
C161       C882 1.540   1_545   S
Zn162      O166 1.942       .   S
Zn162      O167 1.922       .   S
Zn162      O171 1.922       .   S
Zn162      O178 1.922       .   S
Zn163      O166 1.942       .   S
Zn163      O168 1.922       .   S
Zn163      O170 1.922       .   S
Zn163      O174 1.922       .   S
Zn164      O166 1.942       .   S
Zn164      O169 1.922       .   S
Zn164      O172 1.922       .   S
Zn164      O175 1.922       .   S
Zn165      O166 1.942       .   S
Zn165      O173 1.922       .   S
Zn165      O176 1.922       .   S
Zn165      O177 1.922       .   S
O167       C179 1.304       .   A
O168       C180 1.304       .   A
O169       C181 1.304       .   A
O170       C179 1.304       .   A
O171       C181 1.304       .   A
O172       C180 1.304       .   A
O173       C182 1.304       .   A
O174       C183 1.304       .   A
O175       C182 1.304       .   A
O176       C183 1.304       .   A
O177       C184 1.304       .   A
O178       C184 1.304       .   A
C179       C962 1.540       .   S
C180       C734 1.540   1_455   S
C181       C999 1.540       .   S
C182       C956 1.540   1_545   S
C183      C1067 1.540   1_556   S
C184       C771 1.540       .   S
C1036     C1037 0.026       .   A
C1036     C1041 0.026       .   A
C1037     C1038 0.026       .   A
C1037     H1044 0.021       .   A
C1038     C1039 0.026       .   A
C1038     H1043 0.021       .   A
C1039     C1040 0.026       .   A
C1039     C1042 0.026       .   A
C1040     C1041 0.025       .   A
C1040     H1046 0.021       .   A
C1041     H1045 0.021       .   A
C1042     C1047 0.026       .   A
C1042     C1051 0.026       .   A
C1047     C1048 0.026       .   A
C1047     H1054 0.021       .   A
C1048     C1049 0.026       .   A
C1048     H1053 0.021       .   A
C1049     C1050 0.026       .   A
C1049     C1052 0.026       .   A
C1050     C1051 0.025       .   A
C1050     H1056 0.021       .   A
C1051     H1055 0.021       .   A
C1052     C1057 0.026       .   A
C1052     C1061 0.026       .   A
C1057     C1058 0.026       .   A
C1057     C1064 0.029       .   A
C1058     C1059 0.026       .   A
C1058     H1063 0.021       .   A
C1059     C1060 0.026       .   A
C1059     C1062 0.026       .   A
C1060     C1061 0.025       .   A
C1060     H1066 0.021       .   A
C1061     H1065 0.021       .   A
C1062     C1067 0.026       .   A
C1062     H1069 0.021       .   A
C1064     H1070 0.021       .   A
C1064     H1071 0.021       .   A
C1064     H1072 0.021       .   A
C1067     H1068 0.021       .   A
C999      C1000 0.026       .   A
C999      C1004 0.026       .   A
C1000     C1001 0.026       .   A
C1000     H1007 0.021       .   A
C1001     C1002 0.026       .   A
C1001     H1006 0.021       .   A
C1002     C1003 0.026       .   A
C1002     C1005 0.026       .   A
C1003     C1004 0.025       .   A
C1003     H1009 0.021       .   A
C1004     H1008 0.021       .   A
C1005     C1010 0.026       .   A
C1005     C1014 0.026       .   A
C1010     C1011 0.026       .   A
C1010     H1017 0.021       .   A
C1011     C1012 0.026       .   A
C1011     H1016 0.021       .   A
C1012     C1013 0.026       .   A
C1012     C1015 0.026       .   A
C1013     C1014 0.025       .   A
C1013     H1019 0.021       .   A
C1014     H1018 0.021       .   A
C1015     C1020 0.026       .   A
C1015     C1024 0.026       .   A
C1020     C1021 0.026       .   A
C1020     C1027 0.029       .   A
C1021     C1022 0.026       .   A
C1021     H1026 0.021       .   A
C1022     C1023 0.026       .   A
C1022     C1025 0.026       .   A
C1023     C1024 0.025       .   A
C1023     H1029 0.021       .   A
C1024     H1028 0.021       .   A
C1025     C1030 0.026       .   A
C1025     H1032 0.021       .   A
C1027     H1033 0.021       .   A
C1027     H1034 0.021       .   A
C1027     H1035 0.021       .   A
C1030     H1031 0.021       .   A
C962       C963 0.026       .   A
C962       C967 0.026       .   A
C963       C964 0.026       .   A
C963       H970 0.021       .   A
C964       C965 0.026       .   A
C964       H969 0.021       .   A
C965       C966 0.026       .   A
C965       C968 0.026       .   A
C966       C967 0.025       .   A
C966       H972 0.021       .   A
C967       H971 0.021       .   A
C968       C973 0.026       .   A
C968       C977 0.026       .   A
C973       C974 0.026       .   A
C973       H980 0.021       .   A
C974       C975 0.026       .   A
C974       H979 0.021       .   A
C975       C976 0.026       .   A
C975       C978 0.026       .   A
C976       C977 0.025       .   A
C976       H982 0.021       .   A
C977       H981 0.021       .   A
C978       C983 0.026       .   A
C978       C987 0.026       .   A
C983       C984 0.026       .   A
C983       C990 0.029       .   A
C984       C985 0.026       .   A
C984       H989 0.021       .   A
C985       C986 0.026       .   A
C985       C988 0.026       .   A
C986       C987 0.025       .   A
C986       H992 0.021       .   A
C987       H991 0.021       .   A
C988       C993 0.026       .   A
C988       H995 0.021       .   A
C990       H996 0.021       .   A
C990       H997 0.021       .   A
C990       H998 0.021       .   A
C993       H994 0.021       .   A
C925       C926 0.026       .   A
C925       C930 0.026       .   A
C926       C927 0.026       .   A
C926       H933 0.021       .   A
C927       C928 0.026       .   A
C927       H932 0.021       .   A
C928       C929 0.026       .   A
C928       C931 0.026       .   A
C929       C930 0.025       .   A
C929       H935 0.021       .   A
C930       H934 0.021       .   A
C931       C936 0.026       .   A
C931       C940 0.026       .   A
C936       C937 0.026       .   A
C936       H943 0.021       .   A
C937       C938 0.026       .   A
C937       H942 0.021       .   A
C938       C939 0.026       .   A
C938       C941 0.026       .   A
C939       C940 0.025       .   A
C939       H945 0.021       .   A
C940       H944 0.021       .   A
C941       C946 0.026       .   A
C941       C950 0.026       .   A
C946       C947 0.026       .   A
C946       C953 0.029       .   A
C947       C948 0.026       .   A
C947       H952 0.021       .   A
C948       C949 0.026       .   A
C948       C951 0.026       .   A
C949       C950 0.025       .   A
C949       H955 0.021       .   A
C950       H954 0.021       .   A
C951       C956 0.026       .   A
C951       H958 0.021       .   A
C953       H959 0.021       .   A
C953       H960 0.021       .   A
C953       H961 0.021       .   A
C956       H957 0.021       .   A
C888       C889 0.026       .   A
C888       C893 0.026       .   A
C889       C890 0.026       .   A
C889       H896 0.021       .   A
C890       C891 0.026       .   A
C890       H895 0.021       .   A
C891       C892 0.026       .   A
C891       C894 0.026       .   A
C892       C893 0.025       .   A
C892       H898 0.021       .   A
C893       H897 0.021       .   A
C894       C899 0.026       .   A
C894       C903 0.026       .   A
C899       C900 0.026       .   A
C899       H906 0.021       .   A
C900       C901 0.026       .   A
C900       H905 0.021       .   A
C901       C902 0.026       .   A
C901       C904 0.026       .   A
C902       C903 0.025       .   A
C902       H908 0.021       .   A
C903       H907 0.021       .   A
C904       C909 0.026       .   A
C904       C913 0.026       .   A
C909       C910 0.026       .   A
C909       C916 0.029       .   A
C910       C911 0.026       .   A
C910       H915 0.021       .   A
C911       C912 0.026       .   A
C911       C914 0.026       .   A
C912       C913 0.025       .   A
C912       H918 0.021       .   A
C913       H917 0.021       .   A
C914       C919 0.026       .   A
C914       H921 0.021       .   A
C916       H922 0.021       .   A
C916       H923 0.021       .   A
C916       H924 0.021       .   A
C919       H920 0.021       .   A
C851       C852 0.026       .   A
C851       C856 0.026       .   A
C852       C853 0.026       .   A
C852       H859 0.021       .   A
C853       C854 0.026       .   A
C853       H858 0.021       .   A
C854       C855 0.026       .   A
C854       C857 0.026       .   A
C855       C856 0.025       .   A
C855       H861 0.021       .   A
C856       H860 0.021       .   A
C857       C862 0.026       .   A
C857       C866 0.026       .   A
C862       C863 0.026       .   A
C862       H869 0.021       .   A
C863       C864 0.026       .   A
C863       H868 0.021       .   A
C864       C865 0.026       .   A
C864       C867 0.026       .   A
C865       C866 0.025       .   A
C865       H871 0.021       .   A
C866       H870 0.021       .   A
C867       C872 0.026       .   A
C867       C876 0.026       .   A
C872       C873 0.026       .   A
C872       C879 0.029       .   A
C873       C874 0.026       .   A
C873       H878 0.021       .   A
C874       C875 0.026       .   A
C874       C877 0.026       .   A
C875       C876 0.025       .   A
C875       H881 0.021       .   A
C876       H880 0.021       .   A
C877       C882 0.026       .   A
C877       H884 0.021       .   A
C879       H885 0.021       .   A
C879       H886 0.021       .   A
C879       H887 0.021       .   A
C882       H883 0.021       .   A
C814       C815 0.026       .   A
C814       C819 0.026       .   A
C815       C816 0.026       .   A
C815       H822 0.021       .   A
C816       C817 0.026       .   A
C816       H821 0.021       .   A
C817       C818 0.026       .   A
C817       C820 0.026       .   A
C818       C819 0.025       .   A
C818       H824 0.021       .   A
C819       H823 0.021       .   A
C820       C825 0.026       .   A
C820       C829 0.026       .   A
C825       C826 0.026       .   A
C825       H832 0.021       .   A
C826       C827 0.026       .   A
C826       H831 0.021       .   A
C827       C828 0.026       .   A
C827       C830 0.026       .   A
C828       C829 0.025       .   A
C828       H834 0.021       .   A
C829       H833 0.021       .   A
C830       C835 0.026       .   A
C830       C839 0.026       .   A
C835       C836 0.026       .   A
C835       C842 0.029       .   A
C836       C837 0.026       .   A
C836       H841 0.021       .   A
C837       C838 0.026       .   A
C837       C840 0.026       .   A
C838       C839 0.025       .   A
C838       H844 0.021       .   A
C839       H843 0.021       .   A
C840       C845 0.026       .   A
C840       H847 0.021       .   A
C842       H848 0.021       .   A
C842       H849 0.021       .   A
C842       H850 0.021       .   A
C845       H846 0.021       .   A
C777       C778 0.026       .   A
C777       C782 0.026       .   A
C778       C779 0.026       .   A
C778       H785 0.021       .   A
C779       C780 0.026       .   A
C779       H784 0.021       .   A
C780       C781 0.026       .   A
C780       C783 0.026       .   A
C781       C782 0.025       .   A
C781       H787 0.021       .   A
C782       H786 0.021       .   A
C783       C788 0.026       .   A
C783       C792 0.026       .   A
C788       C789 0.026       .   A
C788       H795 0.021       .   A
C789       C790 0.026       .   A
C789       H794 0.021       .   A
C790       C791 0.026       .   A
C790       C793 0.026       .   A
C791       C792 0.025       .   A
C791       H797 0.021       .   A
C792       H796 0.021       .   A
C793       C798 0.026       .   A
C793       C802 0.026       .   A
C798       C799 0.026       .   A
C798       C805 0.029       .   A
C799       C800 0.026       .   A
C799       H804 0.021       .   A
C800       C801 0.026       .   A
C800       C803 0.026       .   A
C801       C802 0.025       .   A
C801       H807 0.021       .   A
C802       H806 0.021       .   A
C803       C808 0.026       .   A
C803       H810 0.021       .   A
C805       H811 0.021       .   A
C805       H812 0.021       .   A
C805       H813 0.021       .   A
C808       H809 0.021       .   A
C740       C741 0.026       .   A
C740       C745 0.026       .   A
C741       C742 0.026       .   A
C741       H748 0.021       .   A
C742       C743 0.026       .   A
C742       H747 0.021       .   A
C743       C744 0.026       .   A
C743       C746 0.026       .   A
C744       C745 0.025       .   A
C744       H750 0.021       .   A
C745       H749 0.021       .   A
C746       C751 0.026       .   A
C746       C755 0.026       .   A
C751       C752 0.026       .   A
C751       H758 0.021       .   A
C752       C753 0.026       .   A
C752       H757 0.021       .   A
C753       C754 0.026       .   A
C753       C756 0.026       .   A
C754       C755 0.025       .   A
C754       H760 0.021       .   A
C755       H759 0.021       .   A
C756       C761 0.026       .   A
C756       C765 0.026       .   A
C761       C762 0.026       .   A
C761       C768 0.029       .   A
C762       C763 0.026       .   A
C762       H767 0.021       .   A
C763       C764 0.026       .   A
C763       C766 0.026       .   A
C764       C765 0.025       .   A
C764       H770 0.021       .   A
C765       H769 0.021       .   A
C766       C771 0.026       .   A
C766       H773 0.021       .   A
C768       H774 0.021       .   A
C768       H775 0.021       .   A
C768       H776 0.021       .   A
C771       H772 0.021       .   A
C703       C704 0.026       .   A
C703       C708 0.026       .   A
C704       C705 0.026       .   A
C704       H711 0.021       .   A
C705       C706 0.026       .   A
C705       H710 0.021       .   A
C706       C707 0.026       .   A
C706       C709 0.026       .   A
C707       C708 0.025       .   A
C707       H713 0.021       .   A
C708       H712 0.021       .   A
C709       C714 0.026       .   A
C709       C718 0.026       .   A
C714       C715 0.026       .   A
C714       H721 0.021       .   A
C715       C716 0.026       .   A
C715       H720 0.021       .   A
C716       C717 0.026       .   A
C716       C719 0.026       .   A
C717       C718 0.025       .   A
C717       H723 0.021       .   A
C718       H722 0.021       .   A
C719       C724 0.026       .   A
C719       C728 0.026       .   A
C724       C725 0.026       .   A
C724       C731 0.029       .   A
C725       C726 0.026       .   A
C725       H730 0.021       .   A
C726       C727 0.026       .   A
C726       C729 0.026       .   A
C727       C728 0.025       .   A
C727       H733 0.021       .   A
C728       H732 0.021       .   A
C729       C734 0.026       .   A
C729       H736 0.021       .   A
C731       H737 0.021       .   A
C731       H738 0.021       .   A
C731       H739 0.021       .   A
C734       H735 0.021       .   A
C666       C667 0.026       .   A
C666       C671 0.026       .   A
C667       C668 0.026       .   A
C667       H674 0.021       .   A
C668       C669 0.026       .   A
C668       H673 0.021       .   A
C669       C670 0.026       .   A
C669       C672 0.026       .   A
C670       C671 0.025       .   A
C670       H676 0.021       .   A
C671       H675 0.021       .   A
C672       C677 0.026       .   A
C672       C681 0.026       .   A
C677       C678 0.026       .   A
C677       H684 0.021       .   A
C678       C679 0.026       .   A
C678       H683 0.021       .   A
C679       C680 0.026       .   A
C679       C682 0.026       .   A
C680       C681 0.025       .   A
C680       H686 0.021       .   A
C681       H685 0.021       .   A
C682       C687 0.026       .   A
C682       C691 0.026       .   A
C687       C688 0.026       .   A
C687       C694 0.029       .   A
C688       C689 0.026       .   A
C688       H693 0.021       .   A
C689       C690 0.026       .   A
C689       C692 0.026       .   A
C690       C691 0.025       .   A
C690       H696 0.021       .   A
C691       H695 0.021       .   A
C692       C697 0.026       .   A
C692       H699 0.021       .   A
C694       H700 0.021       .   A
C694       H701 0.021       .   A
C694       H702 0.021       .   A
C697       H698 0.021       .   A
C629       C630 0.026       .   A
C629       C634 0.026       .   A
C630       C631 0.026       .   A
C630       H637 0.021       .   A
C631       C632 0.026       .   A
C631       H636 0.021       .   A
C632       C633 0.026       .   A
C632       C635 0.026       .   A
C633       C634 0.025       .   A
C633       H639 0.021       .   A
C634       H638 0.021       .   A
C635       C640 0.026       .   A
C635       C644 0.026       .   A
C640       C641 0.026       .   A
C640       H647 0.021       .   A
C641       C642 0.026       .   A
C641       H646 0.021       .   A
C642       C643 0.026       .   A
C642       C645 0.026       .   A
C643       C644 0.025       .   A
C643       H649 0.021       .   A
C644       H648 0.021       .   A
C645       C650 0.026       .   A
C645       C654 0.026       .   A
C650       C651 0.026       .   A
C650       C657 0.029       .   A
C651       C652 0.026       .   A
C651       H656 0.021       .   A
C652       C653 0.026       .   A
C652       C655 0.026       .   A
C653       C654 0.025       .   A
C653       H659 0.021       .   A
C654       H658 0.021       .   A
C655       C660 0.026       .   A
C655       H662 0.021       .   A
C657       H663 0.021       .   A
C657       H664 0.021       .   A
C657       H665 0.021       .   A
C660       H661 0.021       .   A
C592       C593 0.026       .   A
C592       C597 0.026       .   A
C593       C594 0.026       .   A
C593       H600 0.021       .   A
C594       C595 0.026       .   A
C594       H599 0.021       .   A
C595       C596 0.026       .   A
C595       C598 0.026       .   A
C596       C597 0.025       .   A
C596       H602 0.021       .   A
C597       H601 0.021       .   A
C598       C603 0.026       .   A
C598       C607 0.026       .   A
C603       C604 0.026       .   A
C603       H610 0.021       .   A
C604       C605 0.026       .   A
C604       H609 0.021       .   A
C605       C606 0.026       .   A
C605       C608 0.026       .   A
C606       C607 0.025       .   A
C606       H612 0.021       .   A
C607       H611 0.021       .   A
C608       C613 0.026       .   A
C608       C617 0.026       .   A
C613       C614 0.026       .   A
C613       C620 0.029       .   A
C614       C615 0.026       .   A
C614       H619 0.021       .   A
C615       C616 0.026       .   A
C615       C618 0.026       .   A
C616       C617 0.025       .   A
C616       H622 0.021       .   A
C617       H621 0.021       .   A
C618       C623 0.026       .   A
C618       H625 0.021       .   A
C620       H626 0.021       .   A
C620       H627 0.021       .   A
C620       H628 0.021       .   A
C623       H624 0.021       .   A
C555       C556 0.026       .   A
C555       C560 0.026       .   A
C556       C557 0.026       .   A
C556       H563 0.021       .   A
C557       C558 0.026       .   A
C557       H562 0.021       .   A
C558       C559 0.026       .   A
C558       C561 0.026       .   A
C559       C560 0.025       .   A
C559       H565 0.021       .   A
C560       H564 0.021       .   A
C561       C566 0.026       .   A
C561       C570 0.026       .   A
C566       C567 0.026       .   A
C566       H573 0.021       .   A
C567       C568 0.026       .   A
C567       H572 0.021       .   A
C568       C569 0.026       .   A
C568       C571 0.026       .   A
C569       C570 0.025       .   A
C569       H575 0.021       .   A
C570       H574 0.021       .   A
C571       C576 0.026       .   A
C571       C580 0.026       .   A
C576       C577 0.026       .   A
C576       C583 0.029       .   A
C577       C578 0.026       .   A
C577       H582 0.021       .   A
C578       C579 0.026       .   A
C578       C581 0.026       .   A
C579       C580 0.025       .   A
C579       H585 0.021       .   A
C580       H584 0.021       .   A
C581       C586 0.026       .   A
C581       H588 0.021       .   A
C583       H589 0.021       .   A
C583       H590 0.021       .   A
C583       H591 0.021       .   A
C586       H587 0.021       .   A
C518       C519 0.026       .   A
C518       C523 0.026       .   A
C519       C520 0.026       .   A
C519       H526 0.021       .   A
C520       C521 0.026       .   A
C520       H525 0.021       .   A
C521       C522 0.026       .   A
C521       C524 0.026       .   A
C522       C523 0.025       .   A
C522       H528 0.021       .   A
C523       H527 0.021       .   A
C524       C529 0.026       .   A
C524       C533 0.026       .   A
C529       C530 0.026       .   A
C529       H536 0.021       .   A
C530       C531 0.026       .   A
C530       H535 0.021       .   A
C531       C532 0.026       .   A
C531       C534 0.026       .   A
C532       C533 0.025       .   A
C532       H538 0.021       .   A
C533       H537 0.021       .   A
C534       C539 0.026       .   A
C534       C543 0.026       .   A
C539       C540 0.026       .   A
C539       C546 0.029       .   A
C540       C541 0.026       .   A
C540       H545 0.021       .   A
C541       C542 0.026       .   A
C541       C544 0.026       .   A
C542       C543 0.025       .   A
C542       H548 0.021       .   A
C543       H547 0.021       .   A
C544       C549 0.026       .   A
C544       H551 0.021       .   A
C546       H552 0.021       .   A
C546       H553 0.021       .   A
C546       H554 0.021       .   A
C549       H550 0.021       .   A
C481       C482 0.026       .   A
C481       C486 0.026       .   A
C482       C483 0.026       .   A
C482       H489 0.021       .   A
C483       C484 0.026       .   A
C483       H488 0.021       .   A
C484       C485 0.026       .   A
C484       C487 0.026       .   A
C485       C486 0.025       .   A
C485       H491 0.021       .   A
C486       H490 0.021       .   A
C487       C492 0.026       .   A
C487       C496 0.026       .   A
C492       C493 0.026       .   A
C492       H499 0.021       .   A
C493       C494 0.026       .   A
C493       H498 0.021       .   A
C494       C495 0.026       .   A
C494       C497 0.026       .   A
C495       C496 0.025       .   A
C495       H501 0.021       .   A
C496       H500 0.021       .   A
C497       C502 0.026       .   A
C497       C506 0.026       .   A
C502       C503 0.026       .   A
C502       C509 0.029       .   A
C503       C504 0.026       .   A
C503       H508 0.021       .   A
C504       C505 0.026       .   A
C504       C507 0.026       .   A
C505       C506 0.025       .   A
C505       H511 0.021       .   A
C506       H510 0.021       .   A
C507       C512 0.026       .   A
C507       H514 0.021       .   A
C509       H515 0.021       .   A
C509       H516 0.021       .   A
C509       H517 0.021       .   A
C512       H513 0.021       .   A
C444       C445 0.026       .   A
C444       C449 0.026       .   A
C445       C446 0.026       .   A
C445       H452 0.021       .   A
C446       C447 0.026       .   A
C446       H451 0.021       .   A
C447       C448 0.026       .   A
C447       C450 0.026       .   A
C448       C449 0.025       .   A
C448       H454 0.021       .   A
C449       H453 0.021       .   A
C450       C455 0.026       .   A
C450       C459 0.026       .   A
C455       C456 0.026       .   A
C455       H462 0.021       .   A
C456       C457 0.026       .   A
C456       H461 0.021       .   A
C457       C458 0.026       .   A
C457       C460 0.026       .   A
C458       C459 0.025       .   A
C458       H464 0.021       .   A
C459       H463 0.021       .   A
C460       C465 0.026       .   A
C460       C469 0.026       .   A
C465       C466 0.026       .   A
C465       C472 0.029       .   A
C466       C467 0.026       .   A
C466       H471 0.021       .   A
C467       C468 0.026       .   A
C467       C470 0.026       .   A
C468       C469 0.025       .   A
C468       H474 0.021       .   A
C469       H473 0.021       .   A
C470       C475 0.026       .   A
C470       H477 0.021       .   A
C472       H478 0.021       .   A
C472       H479 0.021       .   A
C472       H480 0.021       .   A
C475       H476 0.021       .   A
C407       C408 0.026       .   A
C407       C412 0.026       .   A
C408       C409 0.026       .   A
C408       H415 0.021       .   A
C409       C410 0.026       .   A
C409       H414 0.021       .   A
C410       C411 0.026       .   A
C410       C413 0.026       .   A
C411       C412 0.025       .   A
C411       H417 0.021       .   A
C412       H416 0.021       .   A
C413       C418 0.026       .   A
C413       C422 0.026       .   A
C418       C419 0.026       .   A
C418       H425 0.021       .   A
C419       C420 0.026       .   A
C419       H424 0.021       .   A
C420       C421 0.026       .   A
C420       C423 0.026       .   A
C421       C422 0.025       .   A
C421       H427 0.021       .   A
C422       H426 0.021       .   A
C423       C428 0.026       .   A
C423       C432 0.026       .   A
C428       C429 0.026       .   A
C428       C435 0.029       .   A
C429       C430 0.026       .   A
C429       H434 0.021       .   A
C430       C431 0.026       .   A
C430       C433 0.026       .   A
C431       C432 0.025       .   A
C431       H437 0.021       .   A
C432       H436 0.021       .   A
C433       C438 0.026       .   A
C433       H440 0.021       .   A
C435       H441 0.021       .   A
C435       H442 0.021       .   A
C435       H443 0.021       .   A
C438       H439 0.021       .   A
C370       C371 0.026       .   A
C370       C375 0.026       .   A
C371       C372 0.026       .   A
C371       H378 0.021       .   A
C372       C373 0.026       .   A
C372       H377 0.021       .   A
C373       C374 0.026       .   A
C373       C376 0.026       .   A
C374       C375 0.025       .   A
C374       H380 0.021       .   A
C375       H379 0.021       .   A
C376       C381 0.026       .   A
C376       C385 0.026       .   A
C381       C382 0.026       .   A
C381       H388 0.021       .   A
C382       C383 0.026       .   A
C382       H387 0.021       .   A
C383       C384 0.026       .   A
C383       C386 0.026       .   A
C384       C385 0.025       .   A
C384       H390 0.021       .   A
C385       H389 0.021       .   A
C386       C391 0.026       .   A
C386       C395 0.026       .   A
C391       C392 0.026       .   A
C391       C398 0.029       .   A
C392       C393 0.026       .   A
C392       H397 0.021       .   A
C393       C394 0.026       .   A
C393       C396 0.026       .   A
C394       C395 0.025       .   A
C394       H400 0.021       .   A
C395       H399 0.021       .   A
C396       C401 0.026       .   A
C396       H403 0.021       .   A
C398       H404 0.021       .   A
C398       H405 0.021       .   A
C398       H406 0.021       .   A
C401       H402 0.021       .   A
C333       C334 0.026       .   A
C333       C338 0.026       .   A
C334       C335 0.026       .   A
C334       H341 0.021       .   A
C335       C336 0.026       .   A
C335       H340 0.021       .   A
C336       C337 0.026       .   A
C336       C339 0.026       .   A
C337       C338 0.025       .   A
C337       H343 0.021       .   A
C338       H342 0.021       .   A
C339       C344 0.026       .   A
C339       C348 0.026       .   A
C344       C345 0.026       .   A
C344       H351 0.021       .   A
C345       C346 0.026       .   A
C345       H350 0.021       .   A
C346       C347 0.026       .   A
C346       C349 0.026       .   A
C347       C348 0.025       .   A
C347       H353 0.021       .   A
C348       H352 0.021       .   A
C349       C354 0.026       .   A
C349       C358 0.026       .   A
C354       C355 0.026       .   A
C354       C361 0.029       .   A
C355       C356 0.026       .   A
C355       H360 0.021       .   A
C356       C357 0.026       .   A
C356       C359 0.026       .   A
C357       C358 0.025       .   A
C357       H363 0.021       .   A
C358       H362 0.021       .   A
C359       C364 0.026       .   A
C359       H366 0.021       .   A
C361       H367 0.021       .   A
C361       H368 0.021       .   A
C361       H369 0.021       .   A
C364       H365 0.021       .   A
C296       C297 0.026       .   A
C296       C301 0.026       .   A
C297       C298 0.026       .   A
C297       H304 0.021       .   A
C298       C299 0.026       .   A
C298       H303 0.021       .   A
C299       C300 0.026       .   A
C299       C302 0.026       .   A
C300       C301 0.025       .   A
C300       H306 0.021       .   A
C301       H305 0.021       .   A
C302       C307 0.026       .   A
C302       C311 0.026       .   A
C307       C308 0.026       .   A
C307       H314 0.021       .   A
C308       C309 0.026       .   A
C308       H313 0.021       .   A
C309       C310 0.026       .   A
C309       C312 0.026       .   A
C310       C311 0.025       .   A
C310       H316 0.021       .   A
C311       H315 0.021       .   A
C312       C317 0.026       .   A
C312       C321 0.026       .   A
C317       C318 0.026       .   A
C317       C324 0.029       .   A
C318       C319 0.026       .   A
C318       H323 0.021       .   A
C319       C320 0.026       .   A
C319       C322 0.026       .   A
C320       C321 0.025       .   A
C320       H326 0.021       .   A
C321       H325 0.021       .   A
C322       C327 0.026       .   A
C322       H329 0.021       .   A
C324       H330 0.021       .   A
C324       H331 0.021       .   A
C324       H332 0.021       .   A
C327       H328 0.021       .   A
C259       C260 0.026       .   A
C259       C264 0.026       .   A
C260       C261 0.026       .   A
C260       H267 0.021       .   A
C261       C262 0.026       .   A
C261       H266 0.021       .   A
C262       C263 0.026       .   A
C262       C265 0.026       .   A
C263       C264 0.025       .   A
C263       H269 0.021       .   A
C264       H268 0.021       .   A
C265       C270 0.026       .   A
C265       C274 0.026       .   A
C270       C271 0.026       .   A
C270       H277 0.021       .   A
C271       C272 0.026       .   A
C271       H276 0.021       .   A
C272       C273 0.026       .   A
C272       C275 0.026       .   A
C273       C274 0.025       .   A
C273       H279 0.021       .   A
C274       H278 0.021       .   A
C275       C280 0.026       .   A
C275       C284 0.026       .   A
C280       C281 0.026       .   A
C280       C287 0.029       .   A
C281       C282 0.026       .   A
C281       H286 0.021       .   A
C282       C283 0.026       .   A
C282       C285 0.026       .   A
C283       C284 0.025       .   A
C283       H289 0.021       .   A
C284       H288 0.021       .   A
C285       C290 0.026       .   A
C285       H292 0.021       .   A
C287       H293 0.021       .   A
C287       H294 0.021       .   A
C287       H295 0.021       .   A
C290       H291 0.021       .   A
C222       C223 0.026       .   A
C222       C227 0.026       .   A
C223       C224 0.026       .   A
C223       H230 0.021       .   A
C224       C225 0.026       .   A
C224       H229 0.021       .   A
C225       C226 0.026       .   A
C225       C228 0.026       .   A
C226       C227 0.025       .   A
C226       H232 0.021       .   A
C227       H231 0.021       .   A
C228       C233 0.026       .   A
C228       C237 0.026       .   A
C233       C234 0.026       .   A
C233       H240 0.021       .   A
C234       C235 0.026       .   A
C234       H239 0.021       .   A
C235       C236 0.026       .   A
C235       C238 0.026       .   A
C236       C237 0.025       .   A
C236       H242 0.021       .   A
C237       H241 0.021       .   A
C238       C243 0.026       .   A
C238       C247 0.026       .   A
C243       C244 0.026       .   A
C243       C250 0.029       .   A
C244       C245 0.026       .   A
C244       H249 0.021       .   A
C245       C246 0.026       .   A
C245       C248 0.026       .   A
C246       C247 0.025       .   A
C246       H252 0.021       .   A
C247       H251 0.021       .   A
C248       C253 0.026       .   A
C248       H255 0.021       .   A
C250       H256 0.021       .   A
C250       H257 0.021       .   A
C250       H258 0.021       .   A
C253       H254 0.021       .   A
C185       C186 0.026       .   A
C185       C190 0.026       .   A
C186       C187 0.026       .   A
C186       H193 0.021       .   A
C187       C188 0.026       .   A
C187       H192 0.021       .   A
C188       C189 0.026       .   A
C188       C191 0.026       .   A
C189       C190 0.025       .   A
C189       H195 0.021       .   A
C190       H194 0.021       .   A
C191       C196 0.026       .   A
C191       C200 0.026       .   A
C196       C197 0.026       .   A
C196       H203 0.021       .   A
C197       C198 0.026       .   A
C197       H202 0.021       .   A
C198       C199 0.026       .   A
C198       C201 0.026       .   A
C199       C200 0.025       .   A
C199       H205 0.021       .   A
C200       H204 0.021       .   A
C201       C206 0.026       .   A
C201       C210 0.026       .   A
C206       C207 0.026       .   A
C206       C213 0.029       .   A
C207       C208 0.026       .   A
C207       H212 0.021       .   A
C208       C209 0.026       .   A
C208       C211 0.026       .   A
C209       C210 0.025       .   A
C209       H215 0.021       .   A
C210       H214 0.021       .   A
C211       C216 0.026       .   A
C211       H218 0.021       .   A
C213       H219 0.021       .   A
C213       H220 0.021       .   A
C213       H221 0.021       .   A
C216       H217 0.021       .   A
