data_pcu_v1-6c_Zn_1_Ch_1-73_fer_tobacco
_audit_creation_date              2021-04-07
_audit_creation_method            'tobacco_3.0'
_symmetry_space_group_name_H-M    'P1'
_symmetry_Int_Tables_number       1
_symmetry_cell_setting            triclinic
loop_
_symmetry_equiv_pos_as_xyz
  x,y,z
_cell_length_a                    33.50763050586269
_cell_length_b                    33.50763050586269
_cell_length_c                    33.50763050586269
_cell_angle_alpha                 90.0
_cell_angle_beta                  90.0
_cell_angle_gamma                 90.0
loop_
_atom_site_label
_atom_site_type_symbol
_atom_site_fract_x
_atom_site_fract_y
_atom_site_fract_z
_atom_site_charge
Zn1       Zn   -0.0334610351   -0.0334610351    0.0334610351          1.4972
Zn2       Zn    0.0334610351    0.0334610351    0.0334610351          1.4936
Zn3       Zn    0.0334610351   -0.0334610351   -0.0334610351          1.4911
Zn4       Zn   -0.0334610351    0.0334610351   -0.0334610351          1.4948
O5         O    0.0000000000    0.0000000000    0.0000000000           -2.28
O6         O   -0.0245914136   -0.0245914136    0.0894303761         -1.1863
O7         O    0.0894303761    0.0245914136    0.0245914136         -1.1845
O8         O    0.0245914136   -0.0894303761   -0.0245914136         -1.1796
O9         O    0.0245914136    0.0245914136    0.0894303761         -1.1864
O10        O   -0.0245914136   -0.0894303761    0.0245914136         -1.1824
O11        O    0.0894303761   -0.0245914136   -0.0245914136         -1.1883
O12        O   -0.0245914136    0.0245914136   -0.0894303761         -1.1822
O13        O    0.0245914136    0.0894303761    0.0245914136         -1.1897
O14        O    0.0245914136   -0.0245914136   -0.0894303761         -1.1836
O15        O   -0.0245914136    0.0894303761   -0.0245914136         -1.1883
O16        O   -0.0894303761    0.0245914136   -0.0245914136         -1.1874
O17        O   -0.0894303761   -0.0245914136    0.0245914136         -1.1853
C18        C   -0.0000000000   -0.0000000000    0.1069248988          0.3326
C19        C    0.1069248988   -0.0000000000   -0.0000000000          0.3375
C20        C   -0.0000000000   -0.1069248988    0.0000000000          0.3271
C21        C    0.0000000000    0.0000000000   -0.1069248988          0.3309
C22        C    0.0000000000    0.1069248988   -0.0000000000          0.3422
C23        C   -0.1069248988    0.0000000000    0.0000000000          0.3327
Zn24      Zn    1.0334610351   -0.0334610351    0.5334610351          1.4972
Zn25      Zn    1.0334610351    0.0334610351    0.4665389649          1.4936
Zn26      Zn    0.9665389649   -0.0334610351    0.4665389649          1.4911
Zn27      Zn    0.9665389649    0.0334610351    0.5334610351          1.4948
O28        O    1.0000000000    0.0000000000    0.5000000000           -2.28
O29        O    1.0894303761   -0.0245914136    0.5245914136         -1.1863
O30        O    1.0245914136    0.0245914136    0.4105696239         -1.1845
O31        O    0.9754085864   -0.0894303761    0.4754085864         -1.1796
O32        O    1.0894303761    0.0245914136    0.4754085864         -1.1864
O33        O    1.0245914136   -0.0894303761    0.5245914136         -1.1824
O34        O    0.9754085864   -0.0245914136    0.4105696239         -1.1883
O35        O    0.9105696239    0.0245914136    0.5245914136         -1.1822
O36        O    1.0245914136    0.0894303761    0.4754085864         -1.1897
O37        O    0.9105696239   -0.0245914136    0.4754085864         -1.1836
O38        O    0.9754085864    0.0894303761    0.5245914136         -1.1883
O39        O    0.9754085864    0.0245914136    0.5894303761         -1.1874
O40        O    1.0245914136   -0.0245914136    0.5894303761         -1.1853
C41        C    1.1069248988    0.0000000000    0.5000000000          0.3326
C42        C    1.0000000000    0.0000000000    0.3930751012          0.3375
C43        C    1.0000000000   -0.1069248988    0.5000000000          0.3271
C44        C    0.8930751012    0.0000000000    0.5000000000          0.3309
C45        C    1.0000000000    0.1069248988    0.5000000000          0.3422
C46        C    1.0000000000    0.0000000000    0.6069248988          0.3327
Zn47      Zn    1.0334610351    0.4665389649   -0.0334610351          1.4972
Zn48      Zn    0.9665389649    0.4665389649    0.0334610351          1.4936
Zn49      Zn    1.0334610351    0.5334610351    0.0334610351          1.4911
Zn50      Zn    0.9665389649    0.5334610351   -0.0334610351          1.4948
O51        O    1.0000000000    0.5000000000    0.0000000000           -2.28
O52        O    1.0245914136    0.4105696239   -0.0245914136         -1.1863
O53        O    0.9754085864    0.4754085864    0.0894303761         -1.1845
O54        O    1.0894303761    0.5245914136    0.0245914136         -1.1796
O55        O    0.9754085864    0.4105696239    0.0245914136         -1.1864
O56        O    1.0894303761    0.4754085864   -0.0245914136         -1.1824
O57        O    1.0245914136    0.5245914136    0.0894303761         -1.1883
O58        O    0.9754085864    0.5894303761   -0.0245914136         -1.1822
O59        O    0.9105696239    0.4754085864    0.0245914136         -1.1897
O60        O    1.0245914136    0.5894303761    0.0245914136         -1.1836
O61        O    0.9105696239    0.5245914136   -0.0245914136         -1.1883
O62        O    0.9754085864    0.5245914136   -0.0894303761         -1.1874
O63        O    1.0245914136    0.4754085864   -0.0894303761         -1.1853
C64        C    1.0000000000    0.3930751012    0.0000000000          0.3326
C65        C    1.0000000000    0.5000000000    0.1069248988          0.3375
C66        C    1.1069248988    0.5000000000    0.0000000000          0.3271
C67        C    1.0000000000    0.6069248988    0.0000000000          0.3309
C68        C    0.8930751012    0.5000000000    0.0000000000          0.3422
C69        C    1.0000000000    0.5000000000   -0.1069248988          0.3327
Zn70      Zn    0.9665389649    0.5334610351    0.5334610351          1.4972
Zn71      Zn    1.0334610351    0.4665389649    0.5334610351          1.4936
Zn72      Zn    0.9665389649    0.4665389649    0.4665389649          1.4911
Zn73      Zn    1.0334610351    0.5334610351    0.4665389649          1.4948
O74        O    1.0000000000    0.5000000000    0.5000000000           -2.28
O75        O    0.9754085864    0.5245914136    0.5894303761         -1.1863
O76        O    1.0245914136    0.4105696239    0.5245914136         -1.1845
O77        O    0.9105696239    0.4754085864    0.4754085864         -1.1796
O78        O    1.0245914136    0.4754085864    0.5894303761         -1.1864
O79        O    0.9105696239    0.5245914136    0.5245914136         -1.1824
O80        O    0.9754085864    0.4105696239    0.4754085864         -1.1883
O81        O    1.0245914136    0.5245914136    0.4105696239         -1.1822
O82        O    1.0894303761    0.4754085864    0.5245914136         -1.1897
O83        O    0.9754085864    0.4754085864    0.4105696239         -1.1836
O84        O    1.0894303761    0.5245914136    0.4754085864         -1.1883
O85        O    1.0245914136    0.5894303761    0.4754085864         -1.1874
O86        O    0.9754085864    0.5894303761    0.5245914136         -1.1853
C87        C    1.0000000000    0.5000000000    0.6069248988          0.3326
C88        C    1.0000000000    0.3930751012    0.5000000000          0.3375
C89        C    0.8930751012    0.5000000000    0.5000000000          0.3271
C90        C    1.0000000000    0.5000000000    0.3930751012          0.3309
C91        C    1.1069248988    0.5000000000    0.5000000000          0.3422
C92        C    1.0000000000    0.6069248988    0.5000000000          0.3327
Zn93      Zn    0.4665389649    0.9665389649   -0.0334610351          1.4972
Zn94      Zn    0.4665389649    1.0334610351    0.0334610351          1.4936
Zn95      Zn    0.5334610351    0.9665389649    0.0334610351          1.4911
Zn96      Zn    0.5334610351    1.0334610351   -0.0334610351          1.4948
O97        O    0.5000000000    1.0000000000    0.0000000000           -2.28
O98        O    0.4105696239    0.9754085864   -0.0245914136         -1.1863
O99        O    0.4754085864    1.0245914136    0.0894303761         -1.1845
O100       O    0.5245914136    0.9105696239    0.0245914136         -1.1796
O101       O    0.4105696239    1.0245914136    0.0245914136         -1.1864
O102       O    0.4754085864    0.9105696239   -0.0245914136         -1.1824
O103       O    0.5245914136    0.9754085864    0.0894303761         -1.1883
O104       O    0.5894303761    1.0245914136   -0.0245914136         -1.1822
O105       O    0.4754085864    1.0894303761    0.0245914136         -1.1897
O106       O    0.5894303761    0.9754085864    0.0245914136         -1.1836
O107       O    0.5245914136    1.0894303761   -0.0245914136         -1.1883
O108       O    0.5245914136    1.0245914136   -0.0894303761         -1.1874
O109       O    0.4754085864    0.9754085864   -0.0894303761         -1.1853
C110       C    0.3930751012    1.0000000000    0.0000000000          0.3326
C111       C    0.5000000000    1.0000000000    0.1069248988          0.3375
C112       C    0.5000000000    0.8930751012    0.0000000000          0.3271
C113       C    0.6069248988    1.0000000000    0.0000000000          0.3309
C114       C    0.5000000000    1.1069248988    0.0000000000          0.3422
C115       C    0.5000000000    1.0000000000   -0.1069248988          0.3327
Zn116     Zn    0.4665389649    1.0334610351    0.5334610351          1.4972
Zn117     Zn    0.4665389649    0.9665389649    0.4665389649          1.4936
Zn118     Zn    0.5334610351    1.0334610351    0.4665389649          1.4911
Zn119     Zn    0.5334610351    0.9665389649    0.5334610351          1.4948
O120       O    0.5000000000    1.0000000000    0.5000000000           -2.28
O121       O    0.4105696239    1.0245914136    0.5245914136         -1.1863
O122       O    0.4754085864    0.9754085864    0.4105696239         -1.1845
O123       O    0.5245914136    1.0894303761    0.4754085864         -1.1796
O124       O    0.4105696239    0.9754085864    0.4754085864         -1.1864
O125       O    0.4754085864    1.0894303761    0.5245914136         -1.1824
O126       O    0.5245914136    1.0245914136    0.4105696239         -1.1883
O127       O    0.5894303761    0.9754085864    0.5245914136         -1.1822
O128       O    0.4754085864    0.9105696239    0.4754085864         -1.1897
O129       O    0.5894303761    1.0245914136    0.4754085864         -1.1836
O130       O    0.5245914136    0.9105696239    0.5245914136         -1.1883
O131       O    0.5245914136    0.9754085864    0.5894303761         -1.1874
O132       O    0.4754085864    1.0245914136    0.5894303761         -1.1853
C133       C    0.3930751012    1.0000000000    0.5000000000          0.3326
C134       C    0.5000000000    1.0000000000    0.3930751012          0.3375
C135       C    0.5000000000    1.1069248988    0.5000000000          0.3271
C136       C    0.6069248988    1.0000000000    0.5000000000          0.3309
C137       C    0.5000000000    0.8930751012    0.5000000000          0.3422
C138       C    0.5000000000    1.0000000000    0.6069248988          0.3327
Zn139     Zn    0.4665389649    0.5334610351   -0.0334610351          1.4972
Zn140     Zn    0.4665389649    0.4665389649    0.0334610351          1.4936
Zn141     Zn    0.5334610351    0.4665389649   -0.0334610351          1.4911
Zn142     Zn    0.5334610351    0.5334610351    0.0334610351          1.4948
O143       O    0.5000000000    0.5000000000    0.0000000000           -2.28
O144       O    0.4105696239    0.5245914136   -0.0245914136         -1.1863
O145       O    0.4754085864    0.4105696239    0.0245914136         -1.1845
O146       O    0.5245914136    0.4754085864   -0.0894303761         -1.1796
O147       O    0.4105696239    0.4754085864    0.0245914136         -1.1864
O148       O    0.4754085864    0.5245914136   -0.0894303761         -1.1824
O149       O    0.5245914136    0.4105696239   -0.0245914136         -1.1883
O150       O    0.5894303761    0.5245914136    0.0245914136         -1.1822
O151       O    0.4754085864    0.4754085864    0.0894303761         -1.1897
O152       O    0.5894303761    0.4754085864   -0.0245914136         -1.1836
O153       O    0.5245914136    0.5245914136    0.0894303761         -1.1883
O154       O    0.5245914136    0.5894303761    0.0245914136         -1.1874
O155       O    0.4754085864    0.5894303761   -0.0245914136         -1.1853
C156       C    0.3930751012    0.5000000000    0.0000000000          0.3326
C157       C    0.5000000000    0.3930751012    0.0000000000          0.3375
C158       C    0.5000000000    0.5000000000   -0.1069248988          0.3271
C159       C    0.6069248988    0.5000000000    0.0000000000          0.3309
C160       C    0.5000000000    0.5000000000    0.1069248988          0.3422
C161       C    0.5000000000    0.6069248988    0.0000000000          0.3327
Zn162     Zn    0.5334610351    0.4665389649    0.5334610351          1.4972
Zn163     Zn    0.4665389649    0.4665389649    0.4665389649          1.4936
Zn164     Zn    0.4665389649    0.5334610351    0.5334610351          1.4911
Zn165     Zn    0.5334610351    0.5334610351    0.4665389649          1.4948
O166       O    0.5000000000    0.5000000000    0.5000000000           -2.28
O167       O    0.5245914136    0.4105696239    0.5245914136         -1.1863
O168       O    0.4105696239    0.4754085864    0.4754085864         -1.1845
O169       O    0.4754085864    0.5245914136    0.5894303761         -1.1796
O170       O    0.4754085864    0.4105696239    0.4754085864         -1.1864
O171       O    0.5245914136    0.4754085864    0.5894303761         -1.1824
O172       O    0.4105696239    0.5245914136    0.5245914136         -1.1883
O173       O    0.5245914136    0.5894303761    0.4754085864         -1.1822
O174       O    0.4754085864    0.4754085864    0.4105696239         -1.1897
O175       O    0.4754085864    0.5894303761    0.5245914136         -1.1836
O176       O    0.5245914136    0.5245914136    0.4105696239         -1.1883
O177       O    0.5894303761    0.5245914136    0.4754085864         -1.1874
O178       O    0.5894303761    0.4754085864    0.5245914136         -1.1853
C179       C    0.5000000000    0.3930751012    0.5000000000          0.3326
C180       C    0.3930751012    0.5000000000    0.5000000000          0.3375
C181       C    0.5000000000    0.5000000000    0.6069248988          0.3271
C182       C    0.5000000000    0.6069248988    0.5000000000          0.3309
C183       C    0.5000000000    0.5000000000    0.3930751012          0.3422
C184       C    0.6069248988    0.5000000000    0.5000000000          0.3327
C714       C    0.5000000000    0.5000000000   -0.1528845795           0.531
C715       C    0.5350885603    0.4974911433   -0.1725333034          0.5354
C716       C    0.5360153251    0.4927798328   -0.2119590794          0.5467
C717       C    0.5033972731    0.4902083937   -0.2347552336          0.5544
C718       C    0.4676406570    0.4916625746   -0.2154792906          0.5511
C719       C    0.4659878526    0.4967097120   -0.1749456078          0.5394
C720       C    0.5094342650    0.4826815977   -0.2804766916         -0.4308
H721       H    0.5654137908    0.4901589413   -0.2253043639          0.5503
Cl722     Cl    0.5818480571    0.4971417532   -0.1502889934          0.5299
C723       C    0.4368470427    0.4986658075   -0.1582055116          0.5358
C724       C    0.4418815296    0.4878058605   -0.2367968923         -0.4405
N725       N    0.4080354350    0.4875172578   -0.1436336499          0.5446
O726       O    0.4875955008    0.5095709429   -0.3066058214            0.55
C727       C    0.5451113812    0.4923909193   -0.3430352269         -0.4301
C728       C    0.5518029557    0.4872630843   -0.2980150826         -0.4336
H729       H    0.5706488532    0.4614542369   -0.2915164831         -0.4118
H730       H    0.5535378432    0.4655204297   -0.3594571118         -0.4028
H731       H    0.5625570278    0.5175176283   -0.3542960907          0.5481
H732       H    0.5660910474    0.5142384420   -0.2865522699          0.5389
H733       H    0.4850708600    0.4723215138   -0.3558904104         -0.4069
C734       C    0.5000000000    0.5000000000   -0.3471154205         -0.4345
H735       H    0.4991449118    0.4523656403   -0.2870409904         -0.4013
N736       N    0.4152271753    0.4714228404   -0.2505230568         -0.4219
C691       C    0.5000000000    0.5000000000    0.1528845795           0.531
C692       C    0.5350885603    0.5025088567    0.1725333034          0.5354
C693       C    0.5360153251    0.5072201672    0.2119590794          0.5467
C694       C    0.5033972731    0.5097916063    0.2347552336          0.5544
C695       C    0.4676406570    0.5083374254    0.2154792906          0.5511
C696       C    0.4659878526    0.5032902880    0.1749456078          0.5394
C697       C    0.5094342650    0.5173184023    0.2804766916         -0.4308
H698       H    0.5654137908    0.5098410587    0.2253043639          0.5503
Cl699     Cl    0.5818480571    0.5028582468    0.1502889934          0.5299
C700       C    0.4368470427    0.5013341925    0.1582055116          0.5358
C701       C    0.4418815296    0.5121941395    0.2367968923         -0.4405
N702       N    0.4080354350    0.5124827422    0.1436336499          0.5446
O703       O    0.4875955008    0.4904290571    0.3066058214            0.55
C704       C    0.5451113812    0.5076090807    0.3430352269         -0.4301
C705       C    0.5518029557    0.5127369157    0.2980150826         -0.4336
H706       H    0.5706488532    0.5385457631    0.2915164831         -0.4118
H707       H    0.5535378432    0.5344795703    0.3594571118         -0.4028
H708       H    0.5625570278    0.4824823717    0.3542960907          0.5481
H709       H    0.5660910474    0.4857615580    0.2865522699          0.5389
H710       H    0.4850708600    0.5276784862    0.3558904104         -0.4069
C711       C    0.5000000000    0.5000000000    0.3471154205         -0.4345
H712       H    0.4991449118    0.5476343597    0.2870409904         -0.4013
N713       N    0.4152271753    0.5285771596    0.2505230568         -0.4219
C668       C    0.5000000000    0.6528845795    0.5000000000           0.531
C669       C    0.5149049962    0.6725333034    0.5318644397          0.5354
C670       C    0.5196358118    0.7119590794    0.5310430242          0.5467
C671       C    0.5103588504    0.7347552336    0.4996664788          0.5544
C672       C    0.4961994413    0.7154792906    0.4668006703          0.5511
C673       C    0.4908951222    0.6749456078    0.4670644058          0.5394
C674       C    0.5195480917    0.7804766916    0.5026085484         -0.4308
H675       H    0.5326082427    0.7253043639    0.5575544348          0.5503
Cl676     Cl    0.5319721099    0.6502889934    0.5753993250          0.5299
C677       C    0.4786356664    0.6582055116    0.4405555609          0.5358
C678       C    0.4905781980    0.7367968923    0.4413682400         -0.4405
N679       N    0.4787300563    0.6436336499    0.4096623580          0.5446
O680       O    0.4866224096    0.8066058214    0.4918443503            0.55
C681       C    0.5232555250    0.8430352269    0.5393968956         -0.4301
C682       C    0.5304391782    0.7980150826    0.5438090363         -0.4336
H683       H    0.5612844758    0.7915164831    0.5521655954         -0.4118
H684       H    0.5513617150    0.8594571118    0.5376445966         -0.4028
H685       H    0.5060402855    0.8542960907    0.5646820221          0.5481
H686       H    0.5103673595    0.7865522699    0.5668077662          0.5389
H687       H    0.5204988306    0.8558904104    0.4761509798         -0.4069
C688       C    0.5000000000    0.8471154205    0.5000000000         -0.4345
H689       H    0.5441707061    0.7870409904    0.4821474898         -0.4013
N690       N    0.4963324258    0.7505230568    0.4106152432         -0.4219
C645       C    0.5000000000    1.1528845795    0.5000000000           0.531
C646       C    0.4648364521    1.1725333034    0.4989869220          0.5354
C647       C    0.4634431360    1.2119590794    0.5035819203          0.5467
C648       C    0.4956404609    1.2347552336    0.5094027356          0.5544
C649       C    0.5313632323    1.2154792906    0.5115320164          0.5511
C650       C    0.5335125351    1.1749456078    0.5066754893          0.5394
C651       C    0.4888809517    1.2804766916    0.5162880072         -0.4308
H652       H    0.4339299476    1.2253043639    0.5032494057          0.5503
Cl653     Cl    0.4182764631    1.1502889934    0.4946579451          0.5299
C654       C    0.5627028706    1.1582055116    0.5076436973          0.5358
C655       C    0.5566074773    1.2367968923    0.5179456723         -0.4405
N656       N    0.5902550034    1.1436336499    0.5216179190          0.5446
O657       O    0.5132995336    1.3066058214    0.4917176722            0.55
C658       C    0.4543537906    1.3430352269    0.5030591488         -0.4301
C659       C    0.4471829112    1.2980150826    0.5074920201         -0.4336
H660       H    0.4258502548    1.2915164831    0.5312866042         -0.4118
H661       H    0.4432821475    1.3594571118    0.5289521437         -0.4028
H662       H    0.4395086448    1.3542960907    0.4763136120          0.5481
H663       H    0.4356643795    1.2865522699    0.4792229042          0.5389
H664       H    0.5120860429    1.3558904104    0.5290328330         -0.4069
C665       C    0.5000000000    1.3471154205    0.5000000000         -0.4345
H666       H    0.4960866869    1.2870409904    0.5474810423         -0.4013
N667       N    0.5814896517    1.2505230568    0.5369123627         -0.4219
C622       C    0.5000000000    0.6528845795    0.0000000000           0.531
C623       C    0.4661284552    0.6725333034    0.0094984145          0.5354
C624       C    0.4661658711    0.7119590794    0.0142998663          0.5467
C625       C    0.4986365216    0.7347552336    0.0102741396          0.5544
C626       C    0.5333741582    0.7154792906    0.0016749050          0.5511
C627       C    0.5339806319    0.6749456078   -0.0036012250          0.5394
C628       C    0.4942325711    0.7804766916    0.0188591935         -0.4308
H629       H    0.4378911793    0.7253043639    0.0227663096          0.5503
Cl630     Cl    0.4203900292    0.6502889934    0.0192230742          0.5299
C631       C    0.5621363004    0.6582055116   -0.0113646934          0.5358
C632       C    0.5593832692    0.7367968923    0.0002845695         -0.4405
N633       N    0.5925989319    0.6436336499   -0.0062239757          0.5446
O634       O    0.5102317978    0.8066058214   -0.0118652797            0.55
C635       C    0.4573328410    0.8430352269    0.0165060100         -0.4301
C636       C    0.4518062647    0.7980150826    0.0228722345         -0.4336
H637       H    0.4385222337    0.7915164831    0.0519376604         -0.4118
H638       H    0.4544693621    0.8594571118    0.0445208089         -0.4028
H639       H    0.4352002746    0.8542960907   -0.0046091882          0.5481
H640       H    0.4323961022    0.7865522699   -0.0006875846          0.5389
H641       H    0.5201792576    0.8558904104    0.0241200205         -0.4069
C642       C    0.5000000000    0.8471154205    0.0000000000         -0.4345
H643       H    0.5103956160    0.7870409904    0.0464940272         -0.4013
N644       N    0.5887828258    0.7505230568    0.0109861590         -0.4219
C599       C    0.5000000000    1.1528845795    0.0000000000           0.531
C600       C    0.4675287480    1.1725333034    0.0135321551          0.5354
C601       C    0.4681476086    1.2119590794    0.0182937043          0.5467
C602       C    0.4998913297    1.2347552336    0.0103636485          0.5544
C603       C    0.5333312337    1.2154792906   -0.0023808818          0.5511
C604       C    0.5332940100    1.1749456078   -0.0076916231          0.5394
C605       C    0.4965599434    1.2804766916    0.0194190223         -0.4308
H606       H    0.4411069523    1.2253043639    0.0301234028          0.5503
Cl607     Cl    0.4233054419    1.1502889934    0.0287266216          0.5299
C608       C    0.5603016887    1.1582055116   -0.0188091049          0.5358
C609       C    0.5589803048    1.2367968923   -0.0069121115         -0.4405
N610       N    0.5911627441    1.1436336499   -0.0173969584          0.5446
O611       O    0.5087188872    1.3066058214   -0.0130175094            0.55
C612       C    0.4596469317    1.3430352269    0.0215537631         -0.4301
C613       C    0.4549323668    1.2980150826    0.0285426641         -0.4336
H614       H    0.4452676155    1.2915164831    0.0590034101         -0.4118
H615       H    0.4601986815    1.3594571118    0.0497091186         -0.4028
H616       H    0.4351191893    1.3542960907    0.0032755809          0.5481
H617       H    0.4328107958    1.2865522699    0.0075080361          0.5389
H618       H    0.5229528719    1.3558904104    0.0214975230         -0.4069
C619       C    0.5000000000    1.3471154205    0.0000000000         -0.4345
H620       H    0.5159520252    1.2870409904    0.0448920515         -0.4013
N621       N    0.5894598442    1.2505230568    0.0001487401         -0.4219
C576       C    0.5000000000    1.0000000000   -0.3471154205           0.531
C577       C    0.4974911433    1.0350885603   -0.3274666966          0.5354
C578       C    0.4927798328    1.0360153251   -0.2880409206          0.5467
C579       C    0.4902083937    1.0033972731   -0.2652447664          0.5544
C580       C    0.4916625746    0.9676406570   -0.2845207094          0.5511
C581       C    0.4967097120    0.9659878526   -0.3250543922          0.5394
C582       C    0.4826815977    1.0094342650   -0.2195233084         -0.4308
H583       H    0.4901589413    1.0654137908   -0.2746956361          0.5503
Cl584     Cl    0.4971417532    1.0818480571   -0.3497110066          0.5299
C585       C    0.4986658075    0.9368470427   -0.3417944884          0.5358
C586       C    0.4878058605    0.9418815296   -0.2632031077         -0.4405
N587       N    0.4875172578    0.9080354350   -0.3563663501          0.5446
O588       O    0.5095709429    0.9875955008   -0.1933941786            0.55
C589       C    0.4923909193    1.0451113812   -0.1569647731         -0.4301
C590       C    0.4872630843    1.0518029557   -0.2019849174         -0.4336
H591       H    0.4614542369    1.0706488532   -0.2084835169         -0.4118
H592       H    0.4655204297    1.0535378432   -0.1405428882         -0.4028
H593       H    0.5175176283    1.0625570278   -0.1457039093          0.5481
H594       H    0.5142384420    1.0660910474   -0.2134477301          0.5389
H595       H    0.4723215138    0.9850708600   -0.1441095896         -0.4069
C596       C    0.5000000000    1.0000000000   -0.1528845795         -0.4345
H597       H    0.4523656403    0.9991449118   -0.2129590096         -0.4013
N598       N    0.4714228404    0.9152271753   -0.2494769432         -0.4219
C553       C    0.5000000000    1.0000000000    0.1528845795           0.531
C554       C    0.5350885603    1.0025088567    0.1725333034          0.5354
C555       C    0.5360153251    1.0072201672    0.2119590794          0.5467
C556       C    0.5033972731    1.0097916063    0.2347552336          0.5544
C557       C    0.4676406570    1.0083374254    0.2154792906          0.5511
C558       C    0.4659878526    1.0032902880    0.1749456078          0.5394
C559       C    0.5094342650    1.0173184023    0.2804766916         -0.4308
H560       H    0.5654137908    1.0098410587    0.2253043639          0.5503
Cl561     Cl    0.5818480571    1.0028582468    0.1502889934          0.5299
C562       C    0.4368470427    1.0013341925    0.1582055116          0.5358
C563       C    0.4418815296    1.0121941395    0.2367968923         -0.4405
N564       N    0.4080354350    1.0124827422    0.1436336499          0.5446
O565       O    0.4875955008    0.9904290571    0.3066058214            0.55
C566       C    0.5451113812    1.0076090807    0.3430352269         -0.4301
C567       C    0.5518029557    1.0127369157    0.2980150826         -0.4336
H568       H    0.5706488532    1.0385457631    0.2915164831         -0.4118
H569       H    0.5535378432    1.0344795703    0.3594571118         -0.4028
H570       H    0.5625570278    0.9824823717    0.3542960907          0.5481
H571       H    0.5660910474    0.9857615580    0.2865522699          0.5389
H572       H    0.4850708600    1.0276784862    0.3558904104         -0.4069
C573       C    0.5000000000    1.0000000000    0.3471154205         -0.4345
H574       H    0.4991449118    1.0476343597    0.2870409904         -0.4013
N575       N    0.4152271753    1.0285771596    0.2505230568         -0.4219
C530       C    0.8471154205    0.5000000000    0.5000000000           0.531
C531       C    0.8274666966    0.4668365172    0.5117339182          0.5354
C532       C    0.7880409206    0.4671937347    0.5165222096          0.5467
C533       C    0.7652447664    0.4993240396    0.5103421514          0.5544
C534       C    0.7845207094    0.5334115956    0.4994477142          0.5511
C535       C    0.8250543922    0.5336652130    0.4941429016          0.5394
C536       C    0.7195233084    0.4955018313    0.5192015336         -0.4308
H537       H    0.7746956361    0.4395459176    0.5268535731          0.5503
Cl538     Cl    0.8497110066    0.4218475915    0.5244841800          0.5299
C539       C    0.8417944884    0.5612411051    0.4845208809          0.5358
C540       C    0.7632031077    0.5592702933    0.4963276759         -0.4405
N541       N    0.8563663501    0.5919785438    0.4876206808          0.5446
O542       O    0.6933941786    0.5094185708    0.4874794141            0.55
C543       C    0.6569647731    0.4585273081    0.5193119303         -0.4301
C544       C    0.7019849174    0.4534371442    0.5260322049         -0.4336
H545       H    0.7084835169    0.4421190381    0.5559180701         -0.4118
H546       H    0.6405428882    0.4575366068    0.5474552596         -0.4028
H547       H    0.6457039093    0.4350371675    0.4997181715          0.5481
H548       H    0.7134477301    0.4325004923    0.5038178832          0.5389
H549       H    0.6441095896    0.5217413602    0.5227220395         -0.4069
C550       C    0.6528845795    0.5000000000    0.5000000000         -0.4345
H551       H    0.7129590096    0.5134700675    0.5456981474         -0.4013
N552       N    0.7494769432    0.5893174982    0.5050468174         -0.4219
C507       C    1.1528845795    0.5000000000    0.5000000000           0.531
C508       C    1.1725333034    0.5292852242    0.4805095647          0.5354
C509       C    1.2119590794    0.5329015269    0.4836683135          0.5467
C510       C    1.2347552336    0.5086792974    0.5056645226          0.5544
C511       C    1.2154792906    0.4795112140    0.5263979050          0.5511
C512       C    1.1749456078    0.4751151935    0.5234179113          0.5394
C513       C    1.2804766916    0.5180601281    0.5079223852         -0.4308
H514       H    1.2253043639    0.5577553079    0.4677488779          0.5503
Cl515     Cl    1.1502889934    0.5664787891    0.4521685812          0.5299
C516       C    1.1582055116    0.4508720416    0.5397054126          0.5358
C517       C    1.2367968923    0.4614999647    0.5452128402         -0.4405
N518       N    1.1436336499    0.4349094184    0.5661552436          0.5446
O519       O    1.3066058214    0.4843323888    0.5000225051            0.55
C520       C    1.3430352269    0.5403331594    0.4784090047         -0.4301
C521       C    1.2980150826    0.5487634774    0.4783690383         -0.4336
H522       H    1.2915164831    0.5794630332    0.4872460725         -0.4118
H523       H    1.3594571118    0.5634422435    0.4945024412         -0.4028
H524       H    1.3542960907    0.5387522367    0.4478606369          0.5481
H525       H    1.2865522699    0.5435540111    0.4482911237          0.5389
H526       H    1.3558904104    0.5051328154    0.5310263119         -0.4069
C527       C    1.3471154205    0.5000000000    0.5000000000         -0.4345
H528       H    1.2870409904    0.5284764774    0.5381949425         -0.4013
N529       N    1.2505230568    0.4504469550    0.5744820890         -0.4219
C484       C    0.8471154205    0.5000000000    0.0000000000           0.531
C485       C    0.8274666966    0.5126122184   -0.0328395094          0.5354
C486       C    0.7880409206    0.5087389023   -0.0356772483          0.5467
C487       C    0.7652447664    0.4925740630   -0.0072299709          0.5544
C488       C    0.7845207094    0.4787233762    0.0257671306          0.5511
C489       C    0.8250543922    0.4825928304    0.0294048059          0.5394
C490       C    0.7195233084    0.4883188180   -0.0158896949         -0.4308
H491       H    0.7746956361    0.5188359907   -0.0634114809          0.5503
Cl492     Cl    0.8497110066    0.5321306733   -0.0753318914          0.5299
C493       C    0.8417944884    0.4720030149    0.0566237133          0.5358
C494       C    0.7632031077    0.4643041044    0.0474579464         -0.4405
N495       N    0.8563663501    0.4496856201    0.0779856605          0.5446
O496       O    0.6933941786    0.5034053458    0.0152930758            0.55
C497       C    0.6569647731    0.5122451573   -0.0440793710         -0.4301
C498       C    0.7019849174    0.5104400151   -0.0523142554         -0.4336
H499       H    0.7084835169    0.4950624174   -0.0803284296         -0.4118
H500       H    0.6405428882    0.4914863568   -0.0631083140         -0.4028
H501       H    0.6457039093    0.5423994937   -0.0492192235          0.5481
H502       H    0.7134477301    0.5409290400   -0.0538105330          0.5389
H503       H    0.6441095896    0.4686023148    0.0017785349         -0.4069
C504       C    0.6528845795    0.5000000000    0.0000000000         -0.4345
H505       H    0.7129590096    0.4565008536   -0.0194316150         -0.4013
N506       N    0.7494769432    0.4381615930    0.0646459378         -0.4219
C461       C    1.3471154205    0.5000000000    0.0000000000           0.531
C462       C    1.3274666966    0.4818063852    0.0301080356          0.5354
C463       C    1.2880409206    0.4851199685    0.0335830183          0.5467
C464       C    1.2652447664    0.5060379593    0.0084237798          0.5544
C465       C    1.2845207094    0.5254784496   -0.0216214788          0.5511
C466       C    1.3250543922    0.5223094178   -0.0258832386          0.5394
C467       C    1.2195233084    0.5087031258    0.0176971188         -0.4308
H468       H    1.2746956361    0.4703005259    0.0591079665          0.5503
Cl469     Cl    1.3497110066    0.4551158415    0.0685031849          0.5299
C470       C    1.3417944884    0.5375232282   -0.0508142050          0.5358
C471       C    1.2632031077    0.5434892960   -0.0404367997         -0.4405
N472       N    1.3563663501    0.5632511128   -0.0679161012          0.5446
O473       O    1.1933941786    0.4993386216   -0.0156536617            0.55
C474       C    1.1569647731    0.4801900489    0.0412371272         -0.4301
C475       C    1.2019849174    0.4805180883    0.0496611554         -0.4336
H476       H    1.2084835169    0.4907266408    0.0799439874         -0.4118
H477       H    1.1405428882    0.4972768163    0.0636217391         -0.4028
H478       H    1.1457039093    0.4496017904    0.0409910905          0.5481
H479       H    1.2134477301    0.4502414555    0.0457694988          0.5389
H480       H    1.1441095896    0.5312207806    0.0037736830         -0.4069
C481       C    1.1528845795    0.5000000000    0.0000000000         -0.4345
H482       H    1.2129590096    0.5394014866    0.0267822003         -0.4013
N483       N    1.2494769432    0.5722482070   -0.0527568236         -0.4219
C438       C    1.0000000000    0.5000000000   -0.1528845795           0.531
C439       C    1.0350885603    0.4974911433   -0.1725333034          0.5354
C440       C    1.0360153251    0.4927798328   -0.2119590794          0.5467
C441       C    1.0033972731    0.4902083937   -0.2347552336          0.5544
C442       C    0.9676406570    0.4916625746   -0.2154792906          0.5511
C443       C    0.9659878526    0.4967097120   -0.1749456078          0.5394
C444       C    1.0094342650    0.4826815977   -0.2804766916         -0.4308
H445       H    1.0654137908    0.4901589413   -0.2253043639          0.5503
Cl446     Cl    1.0818480571    0.4971417532   -0.1502889934          0.5299
C447       C    0.9368470427    0.4986658075   -0.1582055116          0.5358
C448       C    0.9418815296    0.4878058605   -0.2367968923         -0.4405
N449       N    0.9080354350    0.4875172578   -0.1436336499          0.5446
O450       O    0.9875955008    0.5095709429   -0.3066058214            0.55
C451       C    1.0451113812    0.4923909193   -0.3430352269         -0.4301
C452       C    1.0518029557    0.4872630843   -0.2980150826         -0.4336
H453       H    1.0706488532    0.4614542369   -0.2915164831         -0.4118
H454       H    1.0535378432    0.4655204297   -0.3594571118         -0.4028
H455       H    1.0625570278    0.5175176283   -0.3542960907          0.5481
H456       H    1.0660910474    0.5142384420   -0.2865522699          0.5389
H457       H    0.9850708600    0.4723215138   -0.3558904104         -0.4069
C458       C    1.0000000000    0.5000000000   -0.3471154205         -0.4345
H459       H    0.9991449118    0.4523656403   -0.2870409904         -0.4013
N460       N    0.9152271753    0.4714228404   -0.2505230568         -0.4219
C415       C    1.0000000000    0.5000000000    0.3471154205           0.531
C416       C    1.0350885603    0.4974911433    0.3274666966          0.5354
C417       C    1.0360153251    0.4927798328    0.2880409206          0.5467
C418       C    1.0033972731    0.4902083937    0.2652447664          0.5544
C419       C    0.9676406570    0.4916625746    0.2845207094          0.5511
C420       C    0.9659878526    0.4967097120    0.3250543922          0.5394
C421       C    1.0094342650    0.4826815977    0.2195233084         -0.4308
H422       H    1.0654137908    0.4901589413    0.2746956361          0.5503
Cl423     Cl    1.0818480571    0.4971417532    0.3497110066          0.5299
C424       C    0.9368470427    0.4986658075    0.3417944884          0.5358
C425       C    0.9418815296    0.4878058605    0.2632031077         -0.4405
N426       N    0.9080354350    0.4875172578    0.3563663501          0.5446
O427       O    0.9875955008    0.5095709429    0.1933941786            0.55
C428       C    1.0451113812    0.4923909193    0.1569647731         -0.4301
C429       C    1.0518029557    0.4872630843    0.2019849174         -0.4336
H430       H    1.0706488532    0.4614542369    0.2084835169         -0.4118
H431       H    1.0535378432    0.4655204297    0.1405428882         -0.4028
H432       H    1.0625570278    0.5175176283    0.1457039093          0.5481
H433       H    1.0660910474    0.5142384420    0.2134477301          0.5389
H434       H    0.9850708600    0.4723215138    0.1441095896         -0.4069
C435       C    1.0000000000    0.5000000000    0.1528845795         -0.4345
H436       H    0.9991449118    0.4523656403    0.2129590096         -0.4013
N437       N    0.9152271753    0.4714228404    0.2494769432         -0.4219
C392       C    1.0000000000   -0.1528845795    0.5000000000           0.531
C393       C    1.0350885603   -0.1725333034    0.5025088567          0.5354
C394       C    1.0360153251   -0.2119590794    0.5072201672          0.5467
C395       C    1.0033972731   -0.2347552336    0.5097916063          0.5544
C396       C    0.9676406570   -0.2154792906    0.5083374254          0.5511
C397       C    0.9659878526   -0.1749456078    0.5032902880          0.5394
C398       C    1.0094342650   -0.2804766916    0.5173184023         -0.4308
H399       H    1.0654137908   -0.2253043639    0.5098410587          0.5503
Cl400     Cl    1.0818480571   -0.1502889934    0.5028582468          0.5299
C401       C    0.9368470427   -0.1582055116    0.5013341925          0.5358
C402       C    0.9418815296   -0.2367968923    0.5121941395         -0.4405
N403       N    0.9080354350   -0.1436336499    0.5124827422          0.5446
O404       O    0.9875955008   -0.3066058214    0.4904290571            0.55
C405       C    1.0451113812   -0.3430352269    0.5076090807         -0.4301
C406       C    1.0518029557   -0.2980150826    0.5127369157         -0.4336
H407       H    1.0706488532   -0.2915164831    0.5385457631         -0.4118
H408       H    1.0535378432   -0.3594571118    0.5344795703         -0.4028
H409       H    1.0625570278   -0.3542960907    0.4824823717          0.5481
H410       H    1.0660910474   -0.2865522699    0.4857615580          0.5389
H411       H    0.9850708600   -0.3558904104    0.5276784862         -0.4069
C412       C    1.0000000000   -0.3471154205    0.5000000000         -0.4345
H413       H    0.9991449118   -0.2870409904    0.5476343597         -0.4013
N414       N    0.9152271753   -0.2505230568    0.5285771596         -0.4219
C369       C    1.0000000000    0.1528845795    0.5000000000           0.531
C370       C    0.9649114397    0.1725333034    0.5025088567          0.5354
C371       C    0.9639846749    0.2119590794    0.5072201672          0.5467
C372       C    0.9966027269    0.2347552336    0.5097916063          0.5544
C373       C    1.0323593430    0.2154792906    0.5083374254          0.5511
C374       C    1.0340121474    0.1749456078    0.5032902880          0.5394
C375       C    0.9905657350    0.2804766916    0.5173184023         -0.4308
H376       H    0.9345862092    0.2253043639    0.5098410587          0.5503
Cl377     Cl    0.9181519429    0.1502889934    0.5028582468          0.5299
C378       C    1.0631529573    0.1582055116    0.5013341925          0.5358
C379       C    1.0581184704    0.2367968923    0.5121941395         -0.4405
N380       N    1.0919645650    0.1436336499    0.5124827422          0.5446
O381       O    1.0124044992    0.3066058214    0.4904290571            0.55
C382       C    0.9548886188    0.3430352269    0.5076090807         -0.4301
C383       C    0.9481970443    0.2980150826    0.5127369157         -0.4336
H384       H    0.9293511468    0.2915164831    0.5385457631         -0.4118
H385       H    0.9464621568    0.3594571118    0.5344795703         -0.4028
H386       H    0.9374429722    0.3542960907    0.4824823717          0.5481
H387       H    0.9339089526    0.2865522699    0.4857615580          0.5389
H388       H    1.0149291400    0.3558904104    0.5276784862         -0.4069
C389       C    1.0000000000    0.3471154205    0.5000000000         -0.4345
H390       H    1.0008550882    0.2870409904    0.5476343597         -0.4013
N391       N    1.0847728247    0.2505230568    0.5285771596         -0.4219
C346       C    0.6528845795   -0.0000000000    0.5000000000           0.531
C347       C    0.6725333034   -0.0307675501    0.5170545973          0.5354
C348       C    0.7119590794   -0.0341161459    0.5136133408          0.5467
C349       C    0.7347552336   -0.0081920154    0.4936511496          0.5544
C350       C    0.7154792906    0.0225594449    0.4753482012          0.5511
C351       C    0.6749456078    0.0266996744    0.4786744390          0.5394
C352       C    0.7804766916   -0.0173591651    0.4906409507         -0.4308
H353       H    0.7253043639   -0.0601775951    0.5274675719          0.5503
Cl354     Cl    0.6502889934   -0.0701342672    0.5422901713          0.5299
C355       C    0.6582055116    0.0521823102    0.4644038965          0.5358
C356       C    0.7367968923    0.0420353473    0.4580538057         -0.4405
N357       N    0.6436336499    0.0702346667    0.4393337684          0.5446
O358       O    0.8066058214    0.0156179644    0.5012464887            0.55
C359       C    0.8430352269   -0.0419493162    0.5182534844         -0.4301
C360       C    0.7980150826   -0.0503551768    0.5176105481         -0.4336
H361       H    0.7915164831   -0.0802349309    0.5062763186         -0.4118
H362       H    0.8594571118   -0.0636790776    0.5003413115         -0.4028
H363       H    0.8542960907   -0.0428476993    0.5488295371          0.5481
H364       H    0.7865522699   -0.0475988344    0.5480115688          0.5389
H365       H    0.8558904104   -0.0026031327    0.4686599055         -0.4069
C366       C    0.8471154205   -0.0000000000    0.5000000000         -0.4345
H367       H    0.7870409904   -0.0252895214    0.4596242213         -0.4013
N368       N    0.7505230568    0.0554225634    0.4297758922         -0.4219
C323       C    1.3471154205   -0.0000000000    0.5000000000           0.531
C324       C    1.3274666966    0.0315921358    0.5154737967          0.5354
C325       C    1.2880409206    0.0347620729    0.5118672973          0.5467
C326       C    1.2652447664    0.0078598172    0.4932442401          0.5544
C327       C    1.2845207094   -0.0237794995    0.4765228804          0.5511
C328       C    1.3250543922   -0.0277458812    0.4800546185          0.5394
C329       C    1.2195233084    0.0168626753    0.4897734367         -0.4308
H330       H    1.2746956361    0.0614919997    0.5243832819          0.5503
Cl331     Cl    1.3497110066    0.0721868984    0.5386823697          0.5299
C332       C    1.3417944884   -0.0539188312    0.4670935306 0.5366000000000001
C333       C    1.2632031077   -0.0441066402    0.4602374809         -0.4405
N334       N    1.3563663501   -0.0732182265    0.4429702589          0.5446
O335       O    1.1933941786   -0.0155347492    0.5020362012            0.55
C336       C    1.1569647731    0.0428202839    0.5161045989         -0.4301
C337       C    1.2019849174    0.0511827726    0.5150365896         -0.4336
H338       H    1.2084835169    0.0804498794    0.5022030039         -0.4118
H339       H    1.1405428882    0.0636145820    0.4971144530         -0.4028
H340       H    1.1457039093    0.0452667063    0.5465958617          0.5481
H341       H    1.2134477301    0.0499702952    0.5455382188          0.5389
H342       H    1.1441095896    0.0010118845    0.4685682658         -0.4069
C343       C    1.1528845795   -0.0000000000    0.5000000000         -0.4345
H344       H    1.2129590096    0.0232113250    0.4583947384         -0.4013
N345       N    1.2494769432   -0.0589094155    0.4326741757         -0.4219
C300       C   -0.0000000000   -0.1528845795    0.0000000000           0.531
C301       C    0.0243975714   -0.1725333034    0.0253428479          0.5354
C302       C    0.0219338817   -0.2119590794    0.0294642035          0.5467
C303       C   -0.0040270310   -0.2347552336    0.0095498712          0.5544
C304       C   -0.0296267745   -0.2154792906   -0.0154561953          0.5511
C305       C   -0.0274779381   -0.1749456078   -0.0203129289          0.5394
C306       C   -0.0045769132   -0.2804766916    0.0191829164         -0.4308
H307       H    0.0420278579   -0.2253043639    0.0510829680          0.5503
Cl308     Cl    0.0589134123   -0.1502889934    0.0568901035          0.5299
C309       C   -0.0478252625   -0.1582055116   -0.0412652439          0.5358
C310       C   -0.0513504329   -0.2367968923   -0.0298259397         -0.4405
N311       N   -0.0766964872   -0.1436336499   -0.0522584817          0.5446
O312       O   -0.0028143975   -0.3066058214   -0.0154127776            0.55
C313       C    0.0284334460   -0.3430352269    0.0358395587         -0.4301
C314       C    0.0299752083   -0.2980150826    0.0441277931         -0.4336
H315       H    0.0267115044   -0.2915164831    0.0759179284         -0.4118
H316       H    0.0167161075   -0.3594571118    0.0614468321         -0.4028
H317       H    0.0582110159   -0.3542960907    0.0288396715          0.5481
H318       H    0.0586431841   -0.2865522699    0.0336412950          0.5389
H319       H   -0.0296148509   -0.3558904104    0.0105800960         -0.4069
C320       C   -0.0000000000   -0.3471154205    0.0000000000         -0.4345
H321       H   -0.0325084547   -0.2870409904    0.0348276294         -0.4013
N322       N   -0.0821209573   -0.2505230568   -0.0354856905         -0.4219
C277       C    0.0000000000    0.1528845795    0.0000000000           0.531
C278       C    0.0050293896    0.1725333034   -0.0348167584          0.5354
C279       C    0.0006239677    0.2119590794   -0.0367266269          0.5467
C280       C   -0.0088422340    0.2347552336   -0.0054066549          0.5544
C281       C   -0.0150444765    0.2154792906    0.0298379535          0.5511
C282       C   -0.0104657333    0.1749456078    0.0325287656          0.5394
C283       C   -0.0149089598    0.2804766916   -0.0129095055         -0.4308
H284       H    0.0043308207    0.2253043639   -0.0660079878          0.5503
Cl285     Cl    0.0146567408    0.1502889934   -0.0805757654          0.5299
C286       C   -0.0147671690    0.1582055116    0.0614166655          0.5358
C287       C   -0.0243041436    0.2367968923    0.0541826747         -0.4405
N288       N   -0.0318017978    0.1436336499    0.0871891376          0.5446
O289       O    0.0067063829    0.3066058214    0.0141597661            0.55
C290       C    0.0021831934    0.3430352269   -0.0456964822         -0.4301
C291       C   -0.0014001711    0.2980150826   -0.0533274297         -0.4336
H292       H   -0.0225979087    0.2915164831   -0.0772422866         -0.4118
H293       H   -0.0222731107    0.3594571118   -0.0596577737         -0.4028
H294       H    0.0304515091    0.3542960907   -0.0573842716          0.5481
H295       H    0.0280011311    0.2865522699   -0.0615361392          0.5389
H296       H   -0.0302249321    0.3558904104    0.0086851197         -0.4069
C297       C    0.0000000000    0.3471154205    0.0000000000         -0.4345
H298       H   -0.0467215676    0.2870409904   -0.0093197918         -0.4013
N299       N   -0.0459929978    0.2505230568    0.0767315450         -0.4219
C254       C   -0.1528845795   -0.0000000000    0.0000000000           0.531
C255       C   -0.1725333034    0.0191199829   -0.0295284216          0.5354
C256       C   -0.2119590794    0.0159159301   -0.0331046466          0.5467
C257       C   -0.2347552336   -0.0057734062   -0.0086072527          0.5544
C258       C   -0.2154792906   -0.0261377132    0.0208196947          0.5511
C259       C   -0.1749456078   -0.0231025793    0.0251778274          0.5394
C260       C   -0.2804766916   -0.0081492600   -0.0179588968         -0.4308
H261       H   -0.2253043639    0.0315210194   -0.0581569926          0.5503
Cl262     Cl   -0.1502889934    0.0469901902   -0.0670760467          0.5299
C263       C   -0.1582055116   -0.0390833973    0.0496242294          0.5358
C264       C   -0.2367968923   -0.0447242678    0.0390665267         -0.4405
N265       N   -0.1436336499   -0.0653300484    0.0659187746          0.5446
O266       O   -0.3066058214    0.0001748616    0.0156666515            0.55
C267       C   -0.3430352269    0.0210812053   -0.0406019409         -0.4301
C268       C   -0.2980150826    0.0210149718   -0.0490320935         -0.4336
H269       H   -0.2915164831    0.0117519197   -0.0796173895         -0.4118
H270       H   -0.3594571118    0.0046979406   -0.0635064625         -0.4028
H271       H   -0.3542960907    0.0516470641   -0.0394059614          0.5481
H272       H   -0.2865522699    0.0511561235   -0.0442019321          0.5389
H273       H   -0.3558904104   -0.0310885082   -0.0047415697         -0.4069
C274       C   -0.3471154205   -0.0000000000    0.0000000000         -0.4345
H275       H   -0.2870409904   -0.0385506301   -0.0279930763         -0.4013
N276       N   -0.2505230568   -0.0738519595    0.0504873641         -0.4219
C231       C    0.1528845795   -0.0000000000    0.0000000000           0.531
C232       C    0.1725333034    0.0282201106   -0.0210030186          0.5354
C233       C    0.2119590794    0.0319974692   -0.0180387478          0.5467
C234       C    0.2347552336    0.0089650817    0.0052004162          0.5544
C235       C    0.2154792906   -0.0190727078    0.0274385050          0.5511
C236       C    0.1749456078   -0.0236193088    0.0246937323          0.5394
C237       C    0.2804766916    0.0184516375    0.0069620033         -0.4308
H238       H    0.2253043639    0.0559799928   -0.0352427420          0.5503
Cl239     Cl    0.1502889934    0.0638723500   -0.0512600910          0.5299
C240       C    0.1582055116   -0.0469726985    0.0422331823          0.5358
C241       C    0.2367968923   -0.0360699441    0.0471742808         -0.4405
N242       N    0.1436336499   -0.0615227724    0.0694855995          0.5446
O243       O    0.3066058214   -0.0156447633    0.0008461256            0.55
C244       C    0.3430352269    0.0391423417   -0.0236814676         -0.4301
C245       C    0.2980150826    0.0475589015   -0.0241645634         -0.4336
H246       H    0.2915164831    0.0786826754   -0.0169136902         -0.4118
H247       H    0.3594571118    0.0630655086   -0.0088251371         -0.4028
H248       H    0.3542960907    0.0359576671   -0.0541044842          0.5481
H249       H    0.2865522699    0.0407754326   -0.0539270235          0.5389
H250       H    0.3558904104    0.0067567816    0.0307135756         -0.4069
C251       C    0.3471154205   -0.0000000000    0.0000000000         -0.4345
H252       H    0.2870409904    0.0304450219    0.0366451094         -0.4013
N253       N    0.2505230568   -0.0455689756    0.0769841173         -0.4219
C208       C   -0.0000000000   -0.0000000000   -0.3471154205           0.531
C209       C    0.0256117653   -0.0241151178   -0.3274666966          0.5354
C210       C    0.0297055549   -0.0216058896   -0.2880409206          0.5467
C211       C    0.0095046401    0.0041326547   -0.2652447664          0.5544
C212       C   -0.0157836920    0.0294536043   -0.2845207094          0.5511
C213       C   -0.0206163048    0.0272510576   -0.3250543922          0.5394
C214       C    0.0191309972    0.0047892964   -0.2195233084         -0.4308
H215       H    0.0515457555   -0.0414589622   -0.2746956361          0.5503
Cl216     Cl    0.0575397297   -0.0582791003   -0.3497110066          0.5299
C217       C   -0.0417929056    0.0473648512   -0.3417944884          0.5358
C218       C   -0.0303933848    0.0510166227   -0.2632031077         -0.4405
N219       N   -0.0531055382    0.0761124292   -0.3563663501          0.5446
O220       O   -0.0154430313    0.0026433563   -0.1933941786            0.55
C221       C    0.0361525734   -0.0280343764   -0.1569647731         -0.4301
C222       C    0.0444573906   -0.0294841594   -0.2019849174         -0.4336
H223       H    0.0762093904   -0.0258682262   -0.2084835169         -0.4118
H224       H    0.0616283730   -0.0160338721   -0.1405428882         -0.4028
H225       H    0.0294832346   -0.0578877181   -0.1457039093          0.5481
H226       H    0.0342893541   -0.0582666283   -0.2134477301          0.5389
H227       H    0.0102511315    0.0297303233   -0.1441095896         -0.4069
C228       C    0.0000000000    0.0000000000   -0.1528845795         -0.4345
H229       H    0.0344650959    0.0328925609   -0.2129590096         -0.4013
N230       N   -0.0363939141    0.0817225114   -0.2494769432         -0.4219
C185       C    0.0000000000    0.0000000000    0.3471154205           0.531
C186       C    0.0092538120    0.0339391867    0.3274666966          0.5354
C187       C    0.0140554088    0.0339364103    0.2880409206          0.5467
C188       C    0.0102640359    0.0014375624    0.2652447664          0.5544
C189       C    0.0019156286   -0.0333612066    0.2845207094          0.5511
C190       C   -0.0033559890   -0.0340057275    0.3250543922          0.5394
C191       C    0.0188170954    0.0059033324    0.2195233084         -0.4308
H192       H    0.0223176531    0.0622714447    0.2746956361          0.5503
Cl193     Cl    0.0186482535    0.0797465778    0.3497110066          0.5299
C194       C   -0.0109161354   -0.0622166704    0.3417944884          0.5358
C195       C    0.0007129636   -0.0593796709    0.2632031077         -0.4405
N196       N   -0.0055557886   -0.0926414231    0.3563663501          0.5446
O197       O   -0.0117911569   -0.0103171297    0.1933941786            0.55
C198       C    0.0161977720    0.0427851260    0.1569647731         -0.4301
C199       C    0.0225239611    0.0483574856    0.2019849174         -0.4336
H200       H    0.0514927973    0.0618508540    0.2084835169         -0.4118
H201       H    0.0441911843    0.0458506341    0.1405428882         -0.4028
H202       H   -0.0050765450    0.0647647877    0.1457039093          0.5481
H203       H   -0.0011752733    0.0675971782    0.2134477301          0.5389
H204       H    0.0242649696   -0.0200047263    0.1441095896         -0.4069
C205       C   -0.0000000000   -0.0000000000    0.1528845795         -0.4345
H206       H    0.0465678132   -0.0100599293    0.2129590096         -0.4013
N207       N    0.0116263682   -0.0887012594    0.2494769432         -0.4219
loop_
_geom_bond_atom_site_label_1
_geom_bond_atom_site_label_2
_geom_bond_distance
_geom_bond_site_symmetry_2
_ccdc_geom_bond_type
Zn1          O5 1.942       .   S
Zn1          O6 1.922       .   S
Zn1         O10 1.922       .   S
Zn1         O17 1.922       .   S
Zn2          O5 1.942       .   S
Zn2          O7 1.922       .   S
Zn2          O9 1.922       .   S
Zn2         O13 1.922       .   S
Zn3          O5 1.942       .   S
Zn3          O8 1.922       .   S
Zn3         O11 1.922       .   S
Zn3         O14 1.922       .   S
Zn4          O5 1.942       .   S
Zn4         O12 1.922       .   S
Zn4         O15 1.922       .   S
Zn4         O16 1.922       .   S
O6          C18 1.304       .   A
O7          C19 1.304       .   A
O8          C20 1.304       .   A
O9          C18 1.304       .   A
O10         C20 1.304       .   A
O11         C19 1.304       .   A
O12         C21 1.304       .   A
O13         C22 1.304       .   A
O14         C21 1.304       .   A
O15         C22 1.304       .   A
O16         C23 1.304       .   A
O17         C23 1.304       .   A
C18        C205 1.540       .   S
C19        C231 1.540       .   S
C20        C300 1.540       .   S
C21        C228 1.540       .   S
C22        C277 1.540       .   S
C23        C254 1.540       .   S
Zn24        O28 1.942       .   S
Zn24        O29 1.922       .   S
Zn24        O33 1.922       .   S
Zn24        O40 1.922       .   S
Zn25        O28 1.942       .   S
Zn25        O30 1.922       .   S
Zn25        O32 1.922       .   S
Zn25        O36 1.922       .   S
Zn26        O28 1.942       .   S
Zn26        O31 1.922       .   S
Zn26        O34 1.922       .   S
Zn26        O37 1.922       .   S
Zn27        O28 1.942       .   S
Zn27        O35 1.922       .   S
Zn27        O38 1.922       .   S
Zn27        O39 1.922       .   S
O29         C41 1.304       .   A
O30         C42 1.304       .   A
O31         C43 1.304       .   A
O32         C41 1.304       .   A
O33         C43 1.304       .   A
O34         C42 1.304       .   A
O35         C44 1.304       .   A
O36         C45 1.304       .   A
O37         C44 1.304       .   A
O38         C45 1.304       .   A
O39         C46 1.304       .   A
O40         C46 1.304       .   A
C41        C343 1.540       .   S
C42        C185 1.540   1_655   S
C43        C392 1.540       .   S
C44        C366 1.540       .   S
C45        C369 1.540       .   S
C46        C208 1.540   1_656   S
Zn47        O51 1.942       .   S
Zn47        O52 1.922       .   S
Zn47        O56 1.922       .   S
Zn47        O63 1.922       .   S
Zn48        O51 1.942       .   S
Zn48        O53 1.922       .   S
Zn48        O55 1.922       .   S
Zn48        O59 1.922       .   S
Zn49        O51 1.942       .   S
Zn49        O54 1.922       .   S
Zn49        O57 1.922       .   S
Zn49        O60 1.922       .   S
Zn50        O51 1.942       .   S
Zn50        O58 1.922       .   S
Zn50        O61 1.922       .   S
Zn50        O62 1.922       .   S
O52         C64 1.304       .   A
O53         C65 1.304       .   A
O54         C66 1.304       .   A
O55         C64 1.304       .   A
O56         C66 1.304       .   A
O57         C65 1.304       .   A
O58         C67 1.304       .   A
O59         C68 1.304       .   A
O60         C67 1.304       .   A
O61         C68 1.304       .   A
O62         C69 1.304       .   A
O63         C69 1.304       .   A
C64        C297 1.540   1_655   S
C65        C435 1.540       .   S
C66        C481 1.540       .   S
C67        C320 1.540   1_665   S
C68        C484 1.540       .   S
C69        C438 1.540       .   S
Zn70        O74 1.942       .   S
Zn70        O75 1.922       .   S
Zn70        O79 1.922       .   S
Zn70        O86 1.922       .   S
Zn71        O74 1.942       .   S
Zn71        O76 1.922       .   S
Zn71        O78 1.922       .   S
Zn71        O82 1.922       .   S
Zn72        O74 1.942       .   S
Zn72        O77 1.922       .   S
Zn72        O80 1.922       .   S
Zn72        O83 1.922       .   S
Zn73        O74 1.942       .   S
Zn73        O81 1.922       .   S
Zn73        O84 1.922       .   S
Zn73        O85 1.922       .   S
O75         C87 1.304       .   A
O76         C88 1.304       .   A
O77         C89 1.304       .   A
O78         C87 1.304       .   A
O79         C89 1.304       .   A
O80         C88 1.304       .   A
O81         C90 1.304       .   A
O82         C91 1.304       .   A
O83         C90 1.304       .   A
O84         C91 1.304       .   A
O85         C92 1.304       .   A
O86         C92 1.304       .   A
C87        C458 1.540   1_556   S
C88        C389 1.540       .   S
C89        C530 1.540       .   S
C90        C415 1.540       .   S
C91        C507 1.540       .   S
C92        C412 1.540   1_565   S
Zn93        O97 1.942       .   S
Zn93        O98 1.922       .   S
Zn93       O102 1.922       .   S
Zn93       O109 1.922       .   S
Zn94        O97 1.942       .   S
Zn94        O99 1.922       .   S
Zn94       O101 1.922       .   S
Zn94       O105 1.922       .   S
Zn95        O97 1.942       .   S
Zn95       O100 1.922       .   S
Zn95       O103 1.922       .   S
Zn95       O106 1.922       .   S
Zn96        O97 1.942       .   S
Zn96       O104 1.922       .   S
Zn96       O107 1.922       .   S
Zn96       O108 1.922       .   S
O98        C110 1.304       .   A
O99        C111 1.304       .   A
O100       C112 1.304       .   A
O101       C110 1.304       .   A
O102       C112 1.304       .   A
O103       C111 1.304       .   A
O104       C113 1.304       .   A
O105       C114 1.304       .   A
O106       C113 1.304       .   A
O107       C114 1.304       .   A
O108       C115 1.304       .   A
O109       C115 1.304       .   A
C110       C251 1.540   1_565   S
C111       C553 1.540       .   S
C112       C642 1.540       .   S
C113       C274 1.540   1_665   S
C114       C599 1.540       .   S
C115       C596 1.540       .   S
Zn116      O120 1.942       .   S
Zn116      O121 1.922       .   S
Zn116      O125 1.922       .   S
Zn116      O132 1.922       .   S
Zn117      O120 1.942       .   S
Zn117      O122 1.922       .   S
Zn117      O124 1.922       .   S
Zn117      O128 1.922       .   S
Zn118      O120 1.942       .   S
Zn118      O123 1.922       .   S
Zn118      O126 1.922       .   S
Zn118      O129 1.922       .   S
Zn119      O120 1.942       .   S
Zn119      O127 1.922       .   S
Zn119      O130 1.922       .   S
Zn119      O131 1.922       .   S
O121       C133 1.304       .   A
O122       C134 1.304       .   A
O123       C135 1.304       .   A
O124       C133 1.304       .   A
O125       C135 1.304       .   A
O126       C134 1.304       .   A
O127       C136 1.304       .   A
O128       C137 1.304       .   A
O129       C136 1.304       .   A
O130       C137 1.304       .   A
O131       C138 1.304       .   A
O132       C138 1.304       .   A
C133       C323 1.540   1_465   S
C134       C573 1.540       .   S
C135       C645 1.540       .   S
C136       C346 1.540   1_565   S
C137       C688 1.540       .   S
C138       C576 1.540   1_556   S
Zn139      O143 1.942       .   S
Zn139      O144 1.922       .   S
Zn139      O148 1.922       .   S
Zn139      O155 1.922       .   S
Zn140      O143 1.942       .   S
Zn140      O145 1.922       .   S
Zn140      O147 1.922       .   S
Zn140      O151 1.922       .   S
Zn141      O143 1.942       .   S
Zn141      O146 1.922       .   S
Zn141      O149 1.922       .   S
Zn141      O152 1.922       .   S
Zn142      O143 1.942       .   S
Zn142      O150 1.922       .   S
Zn142      O153 1.922       .   S
Zn142      O154 1.922       .   S
O144       C156 1.304       .   A
O145       C157 1.304       .   A
O146       C158 1.304       .   A
O147       C156 1.304       .   A
O148       C158 1.304       .   A
O149       C157 1.304       .   A
O150       C159 1.304       .   A
O151       C160 1.304       .   A
O152       C159 1.304       .   A
O153       C160 1.304       .   A
O154       C161 1.304       .   A
O155       C161 1.304       .   A
C156       C461 1.540   1_455   S
C157       C619 1.540   1_545   S
C158       C714 1.540       .   S
C159       C504 1.540       .   S
C160       C691 1.540       .   S
C161       C622 1.540       .   S
Zn162      O166 1.942       .   S
Zn162      O167 1.922       .   S
Zn162      O171 1.922       .   S
Zn162      O178 1.922       .   S
Zn163      O166 1.942       .   S
Zn163      O168 1.922       .   S
Zn163      O170 1.922       .   S
Zn163      O174 1.922       .   S
Zn164      O166 1.942       .   S
Zn164      O169 1.922       .   S
Zn164      O172 1.922       .   S
Zn164      O175 1.922       .   S
Zn165      O166 1.942       .   S
Zn165      O173 1.922       .   S
Zn165      O176 1.922       .   S
Zn165      O177 1.922       .   S
O167       C179 1.304       .   A
O168       C180 1.304       .   A
O169       C181 1.304       .   A
O170       C179 1.304       .   A
O171       C181 1.304       .   A
O172       C180 1.304       .   A
O173       C182 1.304       .   A
O174       C183 1.304       .   A
O175       C182 1.304       .   A
O176       C183 1.304       .   A
O177       C184 1.304       .   A
O178       C184 1.304       .   A
C179       C665 1.540   1_545   S
C180       C527 1.540   1_455   S
C181       C734 1.540   1_556   S
C182       C668 1.540       .   S
C183       C711 1.540       .   S
C184       C550 1.540       .   S
C714       C715 0.038       .   A
C714       C719 0.038       .   A
C715       C716 0.037       .   A
C715      Cl722 0.049       .   A
C716       C717 0.037       .   A
C716       H721 0.030       .   A
C717       C718 0.038       .   A
C717       C720 0.044       .   A
C718       C719 0.038       .   A
C718       C724 0.032       .   A
C719       C723 0.032       .   A
C720       O726 0.041       .   A
C720       C728 0.043       .   A
C720       H735 0.031       .   A
C723       N725 0.032       .   A
C724       N736 0.032       .   A
O726       C734 0.041       .   A
C727       C728 0.043       .   A
C727       H730 0.031       .   A
C727       H731 0.031       .   A
C727       C734 0.043       .   A
C728       H729 0.031       .   A
C728       H732 0.031       .   A
H733       C734 0.031       .   A
C691       C692 0.038       .   A
C691       C696 0.038       .   A
C692       C693 0.037       .   A
C692      Cl699 0.049       .   A
C693       C694 0.037       .   A
C693       H698 0.030       .   A
C694       C695 0.038       .   A
C694       C697 0.044       .   A
C695       C696 0.038       .   A
C695       C701 0.032       .   A
C696       C700 0.032       .   A
C697       O703 0.041       .   A
C697       C705 0.043       .   A
C697       H712 0.031       .   A
C700       N702 0.032       .   A
C701       N713 0.032       .   A
O703       C711 0.041       .   A
C704       C705 0.043       .   A
C704       H707 0.031       .   A
C704       H708 0.031       .   A
C704       C711 0.043       .   A
C705       H706 0.031       .   A
C705       H709 0.031       .   A
H710       C711 0.031       .   A
C668       C669 0.038       .   A
C668       C673 0.038       .   A
C669       C670 0.037       .   A
C669      Cl676 0.049       .   A
C670       C671 0.037       .   A
C670       H675 0.030       .   A
C671       C672 0.038       .   A
C671       C674 0.044       .   A
C672       C673 0.038       .   A
C672       C678 0.032       .   A
C673       C677 0.032       .   A
C674       O680 0.041       .   A
C674       C682 0.043       .   A
C674       H689 0.031       .   A
C677       N679 0.032       .   A
C678       N690 0.032       .   A
O680       C688 0.041       .   A
C681       C682 0.043       .   A
C681       H684 0.031       .   A
C681       H685 0.031       .   A
C681       C688 0.043       .   A
C682       H683 0.031       .   A
C682       H686 0.031       .   A
H687       C688 0.031       .   A
C645       C646 0.038       .   A
C645       C650 0.038       .   A
C646       C647 0.037       .   A
C646      Cl653 0.049       .   A
C647       C648 0.037       .   A
C647       H652 0.030       .   A
C648       C649 0.038       .   A
C648       C651 0.044       .   A
C649       C650 0.038       .   A
C649       C655 0.032       .   A
C650       C654 0.032       .   A
C651       O657 0.041       .   A
C651       C659 0.043       .   A
C651       H666 0.031       .   A
C654       N656 0.032       .   A
C655       N667 0.032       .   A
O657       C665 0.041       .   A
C658       C659 0.043       .   A
C658       H661 0.031       .   A
C658       H662 0.031       .   A
C658       C665 0.043       .   A
C659       H660 0.031       .   A
C659       H663 0.031       .   A
H664       C665 0.031       .   A
C622       C623 0.038       .   A
C622       C627 0.038       .   A
C623       C624 0.037       .   A
C623      Cl630 0.049       .   A
C624       C625 0.037       .   A
C624       H629 0.030       .   A
C625       C626 0.038       .   A
C625       C628 0.044       .   A
C626       C627 0.038       .   A
C626       C632 0.032       .   A
C627       C631 0.032       .   A
C628       O634 0.041       .   A
C628       C636 0.043       .   A
C628       H643 0.031       .   A
C631       N633 0.032       .   A
C632       N644 0.032       .   A
O634       C642 0.041       .   A
C635       C636 0.043       .   A
C635       H638 0.031       .   A
C635       H639 0.031       .   A
C635       C642 0.043       .   A
C636       H637 0.031       .   A
C636       H640 0.031       .   A
H641       C642 0.031       .   A
C599       C600 0.038       .   A
C599       C604 0.038       .   A
C600       C601 0.037       .   A
C600      Cl607 0.049       .   A
C601       C602 0.037       .   A
C601       H606 0.030       .   A
C602       C603 0.038       .   A
C602       C605 0.044       .   A
C603       C604 0.038       .   A
C603       C609 0.032       .   A
C604       C608 0.032       .   A
C605       O611 0.041       .   A
C605       C613 0.043       .   A
C605       H620 0.031       .   A
C608       N610 0.032       .   A
C609       N621 0.032       .   A
O611       C619 0.041       .   A
C612       C613 0.043       .   A
C612       H615 0.031       .   A
C612       H616 0.031       .   A
C612       C619 0.043       .   A
C613       H614 0.031       .   A
C613       H617 0.031       .   A
H618       C619 0.031       .   A
C576       C577 0.038       .   A
C576       C581 0.038       .   A
C577       C578 0.037       .   A
C577      Cl584 0.049       .   A
C578       C579 0.037       .   A
C578       H583 0.030       .   A
C579       C580 0.038       .   A
C579       C582 0.044       .   A
C580       C581 0.038       .   A
C580       C586 0.032       .   A
C581       C585 0.032       .   A
C582       O588 0.041       .   A
C582       C590 0.043       .   A
C582       H597 0.031       .   A
C585       N587 0.032       .   A
C586       N598 0.032       .   A
O588       C596 0.041       .   A
C589       C590 0.043       .   A
C589       H592 0.031       .   A
C589       H593 0.031       .   A
C589       C596 0.043       .   A
C590       H591 0.031       .   A
C590       H594 0.031       .   A
H595       C596 0.031       .   A
C553       C554 0.038       .   A
C553       C558 0.038       .   A
C554       C555 0.037       .   A
C554      Cl561 0.049       .   A
C555       C556 0.037       .   A
C555       H560 0.030       .   A
C556       C557 0.038       .   A
C556       C559 0.044       .   A
C557       C558 0.038       .   A
C557       C563 0.032       .   A
C558       C562 0.032       .   A
C559       O565 0.041       .   A
C559       C567 0.043       .   A
C559       H574 0.031       .   A
C562       N564 0.032       .   A
C563       N575 0.032       .   A
O565       C573 0.041       .   A
C566       C567 0.043       .   A
C566       H569 0.031       .   A
C566       H570 0.031       .   A
C566       C573 0.043       .   A
C567       H568 0.031       .   A
C567       H571 0.031       .   A
H572       C573 0.031       .   A
C530       C531 0.038       .   A
C530       C535 0.038       .   A
C531       C532 0.037       .   A
C531      Cl538 0.049       .   A
C532       C533 0.037       .   A
C532       H537 0.030       .   A
C533       C534 0.038       .   A
C533       C536 0.044       .   A
C534       C535 0.038       .   A
C534       C540 0.032       .   A
C535       C539 0.032       .   A
C536       O542 0.041       .   A
C536       C544 0.043       .   A
C536       H551 0.031       .   A
C539       N541 0.032       .   A
C540       N552 0.032       .   A
O542       C550 0.041       .   A
C543       C544 0.043       .   A
C543       H546 0.031       .   A
C543       H547 0.031       .   A
C543       C550 0.043       .   A
C544       H545 0.031       .   A
C544       H548 0.031       .   A
H549       C550 0.031       .   A
C507       C508 0.038       .   A
C507       C512 0.038       .   A
C508       C509 0.037       .   A
C508      Cl515 0.049       .   A
C509       C510 0.037       .   A
C509       H514 0.030       .   A
C510       C511 0.038       .   A
C510       C513 0.044       .   A
C511       C512 0.038       .   A
C511       C517 0.032       .   A
C512       C516 0.032       .   A
C513       O519 0.041       .   A
C513       C521 0.043       .   A
C513       H528 0.031       .   A
C516       N518 0.032       .   A
C517       N529 0.032       .   A
O519       C527 0.041       .   A
C520       C521 0.043       .   A
C520       H523 0.031       .   A
C520       H524 0.031       .   A
C520       C527 0.043       .   A
C521       H522 0.031       .   A
C521       H525 0.031       .   A
H526       C527 0.031       .   A
C484       C485 0.038       .   A
C484       C489 0.038       .   A
C485       C486 0.037       .   A
C485      Cl492 0.049       .   A
C486       C487 0.037       .   A
C486       H491 0.030       .   A
C487       C488 0.038       .   A
C487       C490 0.044       .   A
C488       C489 0.038       .   A
C488       C494 0.032       .   A
C489       C493 0.032       .   A
C490       O496 0.041       .   A
C490       C498 0.043       .   A
C490       H505 0.031       .   A
C493       N495 0.032       .   A
C494       N506 0.032       .   A
O496       C504 0.041       .   A
C497       C498 0.043       .   A
C497       H500 0.031       .   A
C497       H501 0.031       .   A
C497       C504 0.043       .   A
C498       H499 0.031       .   A
C498       H502 0.031       .   A
H503       C504 0.031       .   A
C461       C462 0.038       .   A
C461       C466 0.038       .   A
C462       C463 0.037       .   A
C462      Cl469 0.049       .   A
C463       C464 0.037       .   A
C463       H468 0.030       .   A
C464       C465 0.038       .   A
C464       C467 0.044       .   A
C465       C466 0.038       .   A
C465       C471 0.032       .   A
C466       C470 0.032       .   A
C467       O473 0.041       .   A
C467       C475 0.043       .   A
C467       H482 0.031       .   A
C470       N472 0.032       .   A
C471       N483 0.032       .   A
O473       C481 0.041       .   A
C474       C475 0.043       .   A
C474       H477 0.031       .   A
C474       H478 0.031       .   A
C474       C481 0.043       .   A
C475       H476 0.031       .   A
C475       H479 0.031       .   A
H480       C481 0.031       .   A
C438       C439 0.038       .   A
C438       C443 0.038       .   A
C439       C440 0.037       .   A
C439      Cl446 0.049       .   A
C440       C441 0.037       .   A
C440       H445 0.030       .   A
C441       C442 0.038       .   A
C441       C444 0.044       .   A
C442       C443 0.038       .   A
C442       C448 0.032       .   A
C443       C447 0.032       .   A
C444       O450 0.041       .   A
C444       C452 0.043       .   A
C444       H459 0.031       .   A
C447       N449 0.032       .   A
C448       N460 0.032       .   A
O450       C458 0.041       .   A
C451       C452 0.043       .   A
C451       H454 0.031       .   A
C451       H455 0.031       .   A
C451       C458 0.043       .   A
C452       H453 0.031       .   A
C452       H456 0.031       .   A
H457       C458 0.031       .   A
C415       C416 0.038       .   A
C415       C420 0.038       .   A
C416       C417 0.037       .   A
C416      Cl423 0.049       .   A
C417       C418 0.037       .   A
C417       H422 0.030       .   A
C418       C419 0.038       .   A
C418       C421 0.044       .   A
C419       C420 0.038       .   A
C419       C425 0.032       .   A
C420       C424 0.032       .   A
C421       O427 0.041       .   A
C421       C429 0.043       .   A
C421       H436 0.031       .   A
C424       N426 0.032       .   A
C425       N437 0.032       .   A
O427       C435 0.041       .   A
C428       C429 0.043       .   A
C428       H431 0.031       .   A
C428       H432 0.031       .   A
C428       C435 0.043       .   A
C429       H430 0.031       .   A
C429       H433 0.031       .   A
H434       C435 0.031       .   A
C392       C393 0.038       .   A
C392       C397 0.038       .   A
C393       C394 0.037       .   A
C393      Cl400 0.049       .   A
C394       C395 0.037       .   A
C394       H399 0.030       .   A
C395       C396 0.038       .   A
C395       C398 0.044       .   A
C396       C397 0.038       .   A
C396       C402 0.032       .   A
C397       C401 0.032       .   A
C398       O404 0.041       .   A
C398       C406 0.043       .   A
C398       H413 0.031       .   A
C401       N403 0.032       .   A
C402       N414 0.032       .   A
O404       C412 0.041       .   A
C405       C406 0.043       .   A
C405       H408 0.031       .   A
C405       H409 0.031       .   A
C405       C412 0.043       .   A
C406       H407 0.031       .   A
C406       H410 0.031       .   A
H411       C412 0.031       .   A
C369       C370 0.038       .   A
C369       C374 0.038       .   A
C370       C371 0.037       .   A
C370      Cl377 0.049       .   A
C371       C372 0.037       .   A
C371       H376 0.030       .   A
C372       C373 0.038       .   A
C372       C375 0.044       .   A
C373       C374 0.038       .   A
C373       C379 0.032       .   A
C374       C378 0.032       .   A
C375       O381 0.041       .   A
C375       C383 0.043       .   A
C375       H390 0.031       .   A
C378       N380 0.032       .   A
C379       N391 0.032       .   A
O381       C389 0.041       .   A
C382       C383 0.043       .   A
C382       H385 0.031       .   A
C382       H386 0.031       .   A
C382       C389 0.043       .   A
C383       H384 0.031       .   A
C383       H387 0.031       .   A
H388       C389 0.031       .   A
C346       C347 0.038       .   A
C346       C351 0.038       .   A
C347       C348 0.037       .   A
C347      Cl354 0.049       .   A
C348       C349 0.037       .   A
C348       H353 0.030       .   A
C349       C350 0.038       .   A
C349       C352 0.044       .   A
C350       C351 0.038       .   A
C350       C356 0.032       .   A
C351       C355 0.032       .   A
C352       O358 0.041       .   A
C352       C360 0.043       .   A
C352       H367 0.031       .   A
C355       N357 0.032       .   A
C356       N368 0.032       .   A
O358       C366 0.041       .   A
C359       C360 0.043       .   A
C359       H362 0.031       .   A
C359       H363 0.031       .   A
C359       C366 0.043       .   A
C360       H361 0.031       .   A
C360       H364 0.031       .   A
H365       C366 0.031       .   A
C323       C324 0.038       .   A
C323       C328 0.038       .   A
C324       C325 0.037       .   A
C324      Cl331 0.049       .   A
C325       C326 0.037       .   A
C325       H330 0.030       .   A
C326       C327 0.038       .   A
C326       C329 0.044       .   A
C327       C328 0.038       .   A
C327       C333 0.032       .   A
C328       C332 0.032       .   A
C329       O335 0.041       .   A
C329       C337 0.043       .   A
C329       H344 0.031       .   A
C332       N334 0.032       .   A
C333       N345 0.032       .   A
O335       C343 0.041       .   A
C336       C337 0.043       .   A
C336       H339 0.031       .   A
C336       H340 0.031       .   A
C336       C343 0.043       .   A
C337       H338 0.031       .   A
C337       H341 0.031       .   A
H342       C343 0.031       .   A
C300       C301 0.038       .   A
C300       C305 0.038       .   A
C301       C302 0.037       .   A
C301      Cl308 0.049       .   A
C302       C303 0.037       .   A
C302       H307 0.030       .   A
C303       C304 0.038       .   A
C303       C306 0.044       .   A
C304       C305 0.038       .   A
C304       C310 0.032       .   A
C305       C309 0.032       .   A
C306       O312 0.041       .   A
C306       C314 0.043       .   A
C306       H321 0.031       .   A
C309       N311 0.032       .   A
C310       N322 0.032       .   A
O312       C320 0.041       .   A
C313       C314 0.043       .   A
C313       H316 0.031       .   A
C313       H317 0.031       .   A
C313       C320 0.043       .   A
C314       H315 0.031       .   A
C314       H318 0.031       .   A
H319       C320 0.031       .   A
C277       C278 0.038       .   A
C277       C282 0.038       .   A
C278       C279 0.037       .   A
C278      Cl285 0.049       .   A
C279       C280 0.037       .   A
C279       H284 0.030       .   A
C280       C281 0.038       .   A
C280       C283 0.044       .   A
C281       C282 0.038       .   A
C281       C287 0.032       .   A
C282       C286 0.032       .   A
C283       O289 0.041       .   A
C283       C291 0.043       .   A
C283       H298 0.031       .   A
C286       N288 0.032       .   A
C287       N299 0.032       .   A
O289       C297 0.041       .   A
C290       C291 0.043       .   A
C290       H293 0.031       .   A
C290       H294 0.031       .   A
C290       C297 0.043       .   A
C291       H292 0.031       .   A
C291       H295 0.031       .   A
H296       C297 0.031       .   A
C254       C255 0.038       .   A
C254       C259 0.038       .   A
C255       C256 0.037       .   A
C255      Cl262 0.049       .   A
C256       C257 0.037       .   A
C256       H261 0.030       .   A
C257       C258 0.038       .   A
C257       C260 0.044       .   A
C258       C259 0.038       .   A
C258       C264 0.032       .   A
C259       C263 0.032       .   A
C260       O266 0.041       .   A
C260       C268 0.043       .   A
C260       H275 0.031       .   A
C263       N265 0.032       .   A
C264       N276 0.032       .   A
O266       C274 0.041       .   A
C267       C268 0.043       .   A
C267       H270 0.031       .   A
C267       H271 0.031       .   A
C267       C274 0.043       .   A
C268       H269 0.031       .   A
C268       H272 0.031       .   A
H273       C274 0.031       .   A
C231       C232 0.038       .   A
C231       C236 0.038       .   A
C232       C233 0.037       .   A
C232      Cl239 0.049       .   A
C233       C234 0.037       .   A
C233       H238 0.030       .   A
C234       C235 0.038       .   A
C234       C237 0.044       .   A
C235       C236 0.038       .   A
C235       C241 0.032       .   A
C236       C240 0.032       .   A
C237       O243 0.041       .   A
C237       C245 0.043       .   A
C237       H252 0.031       .   A
C240       N242 0.032       .   A
C241       N253 0.032       .   A
O243       C251 0.041       .   A
C244       C245 0.043       .   A
C244       H247 0.031       .   A
C244       H248 0.031       .   A
C244       C251 0.043       .   A
C245       H246 0.031       .   A
C245       H249 0.031       .   A
H250       C251 0.031       .   A
C208       C209 0.038       .   A
C208       C213 0.038       .   A
C209       C210 0.037       .   A
C209      Cl216 0.049       .   A
C210       C211 0.037       .   A
C210       H215 0.030       .   A
C211       C212 0.038       .   A
C211       C214 0.044       .   A
C212       C213 0.038       .   A
C212       C218 0.032       .   A
C213       C217 0.032       .   A
C214       O220 0.041       .   A
C214       C222 0.043       .   A
C214       H229 0.031       .   A
C217       N219 0.032       .   A
C218       N230 0.032       .   A
O220       C228 0.041       .   A
C221       C222 0.043       .   A
C221       H224 0.031       .   A
C221       H225 0.031       .   A
C221       C228 0.043       .   A
C222       H223 0.031       .   A
C222       H226 0.031       .   A
H227       C228 0.031       .   A
C185       C186 0.038       .   A
C185       C190 0.038       .   A
C186       C187 0.037       .   A
C186      Cl193 0.049       .   A
C187       C188 0.037       .   A
C187       H192 0.030       .   A
C188       C189 0.038       .   A
C188       C191 0.044       .   A
C189       C190 0.038       .   A
C189       C195 0.032       .   A
C190       C194 0.032       .   A
C191       O197 0.041       .   A
C191       C199 0.043       .   A
C191       H206 0.031       .   A
C194       N196 0.032       .   A
C195       N207 0.032       .   A
O197       C205 0.041       .   A
C198       C199 0.043       .   A
C198       H201 0.031       .   A
C198       H202 0.031       .   A
C198       C205 0.043       .   A
C199       H200 0.031       .   A
C199       H203 0.031       .   A
H204       C205 0.031       .   A
