data_pcu_v1-6c_Zn_1_Ch_1-77_fer_tobacco
_audit_creation_date              2021-02-03
_audit_creation_method            'tobacco_3.0'
_symmetry_space_group_name_H-M    'P1'
_symmetry_Int_Tables_number       1
_symmetry_cell_setting            triclinic
loop_
_symmetry_equiv_pos_as_xyz
  x,y,z
_cell_length_a                    37.8619799740213
_cell_length_b                    37.8619799740213
_cell_length_c                    37.8619799740213
_cell_angle_alpha                 90.0
_cell_angle_beta                  90.0
_cell_angle_gamma                 90.0
loop_
_atom_site_label
_atom_site_type_symbol
_atom_site_fract_x
_atom_site_fract_y
_atom_site_fract_z
_atom_site_charge
Zn1       Zn   -0.0296128201   -0.0296128201    0.0296128201          1.4972
Zn2       Zn    0.0296128201    0.0296128201    0.0296128201          1.4936
Zn3       Zn    0.0296128201   -0.0296128201   -0.0296128201          1.4911
Zn4       Zn   -0.0296128201    0.0296128201   -0.0296128201          1.4948
O5         O    0.0000000000    0.0000000000    0.0000000000         -2.3067
O6         O   -0.0217632570   -0.0217632570    0.0791453591          -1.213
O7         O    0.0791453591    0.0217632570    0.0217632570         -1.2112
O8         O    0.0217632570   -0.0791453591   -0.0217632570         -1.2064
O9         O    0.0217632570    0.0217632570    0.0791453591         -1.2132
O10        O   -0.0217632570   -0.0791453591    0.0217632570         -1.2092
O11        O    0.0791453591   -0.0217632570   -0.0217632570          -1.215
O12        O   -0.0217632570    0.0217632570   -0.0791453591         -1.2089
O13        O    0.0217632570    0.0791453591    0.0217632570         -1.2165
O14        O    0.0217632570   -0.0217632570   -0.0791453591         -1.2104
O15        O   -0.0217632570    0.0791453591   -0.0217632570          -1.215
O16        O   -0.0791453591    0.0217632570   -0.0217632570         -1.2141
O17        O   -0.0791453591   -0.0217632570    0.0217632570          -1.212
C18        C   -0.0000000000   -0.0000000000    0.0946279091          0.3059
C19        C    0.0946279091   -0.0000000000   -0.0000000000          0.3108
C20        C   -0.0000000000   -0.0946279091    0.0000000000          0.3004
C21        C    0.0000000000    0.0000000000   -0.0946279091          0.3041
C22        C    0.0000000000    0.0946279091   -0.0000000000          0.3155
C23        C   -0.0946279091    0.0000000000    0.0000000000           0.306
Zn24      Zn    1.0296128201   -0.0296128201    0.5296128201          1.4972
Zn25      Zn    1.0296128201    0.0296128201    0.4703871799          1.4936
Zn26      Zn    0.9703871799   -0.0296128201    0.4703871799          1.4911
Zn27      Zn    0.9703871799    0.0296128201    0.5296128201          1.4948
O28        O    1.0000000000    0.0000000000    0.5000000000         -2.3067
O29        O    1.0791453591   -0.0217632570    0.5217632570          -1.213
O30        O    1.0217632570    0.0217632570    0.4208546409         -1.2112
O31        O    0.9782367430   -0.0791453591    0.4782367430         -1.2064
O32        O    1.0791453591    0.0217632570    0.4782367430         -1.2132
O33        O    1.0217632570   -0.0791453591    0.5217632570         -1.2092
O34        O    0.9782367430   -0.0217632570    0.4208546409          -1.215
O35        O    0.9208546409    0.0217632570    0.5217632570         -1.2089
O36        O    1.0217632570    0.0791453591    0.4782367430         -1.2165
O37        O    0.9208546409   -0.0217632570    0.4782367430         -1.2104
O38        O    0.9782367430    0.0791453591    0.5217632570          -1.215
O39        O    0.9782367430    0.0217632570    0.5791453591         -1.2141
O40        O    1.0217632570   -0.0217632570    0.5791453591          -1.212
C41        C    1.0946279091    0.0000000000    0.5000000000          0.3059
C42        C    1.0000000000    0.0000000000    0.4053720909          0.3108
C43        C    1.0000000000   -0.0946279091    0.5000000000          0.3004
C44        C    0.9053720909    0.0000000000    0.5000000000          0.3041
C45        C    1.0000000000    0.0946279091    0.5000000000          0.3155
C46        C    1.0000000000    0.0000000000    0.5946279091           0.306
Zn47      Zn    1.0296128201    0.4703871799   -0.0296128201          1.4972
Zn48      Zn    0.9703871799    0.4703871799    0.0296128201          1.4936
Zn49      Zn    1.0296128201    0.5296128201    0.0296128201          1.4911
Zn50      Zn    0.9703871799    0.5296128201   -0.0296128201          1.4948
O51        O    1.0000000000    0.5000000000    0.0000000000         -2.3067
O52        O    1.0217632570    0.4208546409   -0.0217632570          -1.213
O53        O    0.9782367430    0.4782367430    0.0791453591         -1.2112
O54        O    1.0791453591    0.5217632570    0.0217632570         -1.2064
O55        O    0.9782367430    0.4208546409    0.0217632570         -1.2132
O56        O    1.0791453591    0.4782367430   -0.0217632570         -1.2092
O57        O    1.0217632570    0.5217632570    0.0791453591          -1.215
O58        O    0.9782367430    0.5791453591   -0.0217632570         -1.2089
O59        O    0.9208546409    0.4782367430    0.0217632570         -1.2165
O60        O    1.0217632570    0.5791453591    0.0217632570         -1.2104
O61        O    0.9208546409    0.5217632570   -0.0217632570          -1.215
O62        O    0.9782367430    0.5217632570   -0.0791453591         -1.2141
O63        O    1.0217632570    0.4782367430   -0.0791453591          -1.212
C64        C    1.0000000000    0.4053720909    0.0000000000          0.3059
C65        C    1.0000000000    0.5000000000    0.0946279091          0.3108
C66        C    1.0946279091    0.5000000000    0.0000000000          0.3004
C67        C    1.0000000000    0.5946279091    0.0000000000          0.3041
C68        C    0.9053720909    0.5000000000    0.0000000000          0.3155
C69        C    1.0000000000    0.5000000000   -0.0946279091           0.306
Zn70      Zn    0.9703871799    0.4703871799    0.5296128201          1.4972
Zn71      Zn    1.0296128201    0.4703871799    0.4703871799          1.4936
Zn72      Zn    0.9703871799    0.5296128201    0.4703871799          1.4911
Zn73      Zn    1.0296128201    0.5296128201    0.5296128201          1.4948
O74        O    1.0000000000    0.5000000000    0.5000000000         -2.3067
O75        O    0.9782367430    0.4208546409    0.5217632570          -1.213
O76        O    1.0217632570    0.4782367430    0.4208546409         -1.2112
O77        O    0.9208546409    0.5217632570    0.4782367430         -1.2064
O78        O    1.0217632570    0.4208546409    0.4782367430         -1.2132
O79        O    0.9208546409    0.4782367430    0.5217632570         -1.2092
O80        O    0.9782367430    0.5217632570    0.4208546409          -1.215
O81        O    1.0217632570    0.5791453591    0.5217632570         -1.2089
O82        O    1.0791453591    0.4782367430    0.4782367430         -1.2165
O83        O    0.9782367430    0.5791453591    0.4782367430         -1.2104
O84        O    1.0791453591    0.5217632570    0.5217632570          -1.215
O85        O    1.0217632570    0.5217632570    0.5791453591         -1.2141
O86        O    0.9782367430    0.4782367430    0.5791453591          -1.212
C87        C    1.0000000000    0.4053720909    0.5000000000          0.3059
C88        C    1.0000000000    0.5000000000    0.4053720909          0.3108
C89        C    0.9053720909    0.5000000000    0.5000000000          0.3004
C90        C    1.0000000000    0.5946279091    0.5000000000          0.3041
C91        C    1.0946279091    0.5000000000    0.5000000000          0.3155
C92        C    1.0000000000    0.5000000000    0.5946279091           0.306
Zn93      Zn    0.5296128201    0.9703871799   -0.0296128201          1.4972
Zn94      Zn    0.5296128201    1.0296128201    0.0296128201          1.4936
Zn95      Zn    0.4703871799    1.0296128201   -0.0296128201          1.4911
Zn96      Zn    0.4703871799    0.9703871799    0.0296128201          1.4948
O97        O    0.5000000000    1.0000000000    0.0000000000         -2.3067
O98        O    0.5791453591    0.9782367430   -0.0217632570          -1.213
O99        O    0.5217632570    1.0791453591    0.0217632570         -1.2112
O100       O    0.4782367430    1.0217632570   -0.0791453591         -1.2064
O101       O    0.5791453591    1.0217632570    0.0217632570         -1.2132
O102       O    0.5217632570    0.9782367430   -0.0791453591         -1.2092
O103       O    0.4782367430    1.0791453591   -0.0217632570          -1.215
O104       O    0.4208546409    0.9782367430    0.0217632570         -1.2089
O105       O    0.5217632570    1.0217632570    0.0791453591         -1.2165
O106       O    0.4208546409    1.0217632570   -0.0217632570         -1.2104
O107       O    0.4782367430    0.9782367430    0.0791453591          -1.215
O108       O    0.4782367430    0.9208546409    0.0217632570         -1.2141
O109       O    0.5217632570    0.9208546409   -0.0217632570          -1.212
C110       C    0.5946279091    1.0000000000    0.0000000000          0.3059
C111       C    0.5000000000    1.0946279091    0.0000000000          0.3108
C112       C    0.5000000000    1.0000000000   -0.0946279091          0.3004
C113       C    0.4053720909    1.0000000000    0.0000000000          0.3041
C114       C    0.5000000000    1.0000000000    0.0946279091          0.3155
C115       C    0.5000000000    0.9053720909    0.0000000000           0.306
Zn116     Zn    0.4703871799    1.0296128201    0.5296128201          1.4972
Zn117     Zn    0.4703871799    0.9703871799    0.4703871799          1.4936
Zn118     Zn    0.5296128201    1.0296128201    0.4703871799          1.4911
Zn119     Zn    0.5296128201    0.9703871799    0.5296128201          1.4948
O120       O    0.5000000000    1.0000000000    0.5000000000         -2.3067
O121       O    0.4208546409    1.0217632570    0.5217632570          -1.213
O122       O    0.4782367430    0.9782367430    0.4208546409         -1.2112
O123       O    0.5217632570    1.0791453591    0.4782367430         -1.2064
O124       O    0.4208546409    0.9782367430    0.4782367430         -1.2132
O125       O    0.4782367430    1.0791453591    0.5217632570         -1.2092
O126       O    0.5217632570    1.0217632570    0.4208546409          -1.215
O127       O    0.5791453591    0.9782367430    0.5217632570         -1.2089
O128       O    0.4782367430    0.9208546409    0.4782367430         -1.2165
O129       O    0.5791453591    1.0217632570    0.4782367430         -1.2104
O130       O    0.5217632570    0.9208546409    0.5217632570          -1.215
O131       O    0.5217632570    0.9782367430    0.5791453591         -1.2141
O132       O    0.4782367430    1.0217632570    0.5791453591          -1.212
C133       C    0.4053720909    1.0000000000    0.5000000000          0.3059
C134       C    0.5000000000    1.0000000000    0.4053720909          0.3108
C135       C    0.5000000000    1.0946279091    0.5000000000          0.3004
C136       C    0.5946279091    1.0000000000    0.5000000000          0.3041
C137       C    0.5000000000    0.9053720909    0.5000000000          0.3155
C138       C    0.5000000000    1.0000000000    0.5946279091           0.306
Zn139     Zn    0.4703871799    0.5296128201   -0.0296128201          1.4972
Zn140     Zn    0.4703871799    0.4703871799    0.0296128201          1.4936
Zn141     Zn    0.5296128201    0.4703871799   -0.0296128201          1.4895
Zn142     Zn    0.5296128201    0.5296128201    0.0296128201          1.4948
O143       O    0.5000000000    0.5000000000    0.0000000000         -2.3067
O144       O    0.4208546409    0.5217632570   -0.0217632570          -1.213
O145       O    0.4782367430    0.4208546409    0.0217632570         -1.2112
O146       O    0.5217632570    0.4782367430   -0.0791453591         -1.2064
O147       O    0.4208546409    0.4782367430    0.0217632570         -1.2132
O148       O    0.4782367430    0.5217632570   -0.0791453591         -1.2092
O149       O    0.5217632570    0.4208546409   -0.0217632570          -1.215
O150       O    0.5791453591    0.5217632570    0.0217632570         -1.2089
O151       O    0.4782367430    0.4782367430    0.0791453591         -1.2165
O152       O    0.5791453591    0.4782367430   -0.0217632570         -1.2104
O153       O    0.5217632570    0.5217632570    0.0791453591          -1.215
O154       O    0.5217632570    0.5791453591    0.0217632570         -1.2141
O155       O    0.4782367430    0.5791453591   -0.0217632570          -1.212
C156       C    0.4053720909    0.5000000000    0.0000000000          0.3059
C157       C    0.5000000000    0.4053720909    0.0000000000          0.3108
C158       C    0.5000000000    0.5000000000   -0.0946279091          0.3004
C159       C    0.5946279091    0.5000000000    0.0000000000          0.3041
C160       C    0.5000000000    0.5000000000    0.0946279091          0.3155
C161       C    0.5000000000    0.5946279091    0.0000000000           0.306
Zn162     Zn    0.4703871799    0.5296128201    0.4703871799          1.4972
Zn163     Zn    0.4703871799    0.4703871799    0.5296128201          1.4936
Zn164     Zn    0.5296128201    0.4703871799    0.4703871799          1.4911
Zn165     Zn    0.5296128201    0.5296128201    0.5296128201          1.4948
O166       O    0.5000000000    0.5000000000    0.5000000000         -2.3067
O167       O    0.4208546409    0.5217632570    0.4782367430          -1.213
O168       O    0.4782367430    0.4208546409    0.5217632570         -1.2112
O169       O    0.5217632570    0.4782367430    0.4208546409         -1.2064
O170       O    0.4208546409    0.4782367430    0.5217632570         -1.2132
O171       O    0.4782367430    0.5217632570    0.4208546409         -1.2092
O172       O    0.5217632570    0.4208546409    0.4782367430          -1.215
O173       O    0.5791453591    0.5217632570    0.5217632570         -1.2089
O174       O    0.4782367430    0.4782367430    0.5791453591         -1.2165
O175       O    0.5791453591    0.4782367430    0.4782367430         -1.2104
O176       O    0.5217632570    0.5217632570    0.5791453591          -1.215
O177       O    0.5217632570    0.5791453591    0.5217632570         -1.2141
O178       O    0.4782367430    0.5791453591    0.4782367430          -1.212
C179       C    0.4053720909    0.5000000000    0.5000000000          0.3059
C180       C    0.5000000000    0.4053720909    0.5000000000          0.3108
C181       C    0.5000000000    0.5000000000    0.4053720909          0.3004
C182       C    0.5946279091    0.5000000000    0.5000000000          0.3041
C183       C    0.5000000000    0.5000000000    0.5946279091          0.3155
C184       C    0.5000000000    0.5946279091    0.5000000000           0.306
C921       C    0.5000000000    0.5000000000   -0.1353019574          0.5285
C922       C    0.5317784526    0.4985010629   -0.1512105252            0.53
C923       C    0.5352644603    0.4974891347   -0.1860094448          0.5313
C924       C    0.5073679935    0.4978194871   -0.2071957474          0.5313
C925       C    0.4756329668    0.4993459719   -0.1913972064          0.5297
C926       C    0.4706339149    0.5004358483   -0.1563221860          0.5283
N927       N    0.5138157920    0.4969229916   -0.2409709911         -0.4675
H928       H    0.5617585596    0.4964113617   -0.1971472286         -0.4676
H929       H    0.5563034671    0.4981227654   -0.1362888151          0.5301
C930       C    0.4303039862    0.5028963725   -0.1487560208           0.526
H931       H    0.4520512405    0.5001924906   -0.2078599628          0.5292
C932       C    0.4115763646    0.4951258549   -0.1135473095         -0.4672
H933       H    0.4147711815    0.5169663593   -0.0949672126          0.5125
H934       H    0.3831974793    0.4930282362   -0.1183239217         -0.4652
H935       H    0.4201293641    0.4700865759   -0.1020682065         -0.4444
H936       H    0.4214050789    0.5289563167   -0.1574032781          0.5023
H937       H    0.4174056302    0.4842811467   -0.1667057778         -0.4567
N938       N    0.4858401023    0.4959300141   -0.2598848119         -0.4663
C939       C    0.4924266685    0.4978852229   -0.2935825370         -0.4677
C940       C    0.5240573238    0.5039059141   -0.3087971863          0.5269
C941       C    0.5283011751    0.5049813787   -0.3437200131          0.5263
C942       C    0.5000000000    0.5000000000   -0.3646980426          0.5311
C943       C    0.4683140645    0.4950433919   -0.3500750516         -0.4645
C944       C    0.4647831941    0.4939152136   -0.3151932131         -0.4638
C945       C    0.5914791670    0.4940621292   -0.3446699841         -0.4638
H946       H    0.5473385322    0.5086644394   -0.2927119860          0.5223
H947       H    0.4385901997    0.4893950599   -0.3042346707         -0.4598
H948       H    0.4449832857    0.4911863128   -0.3664092597         -0.4607
H949       H    0.6136797646    0.4995956205   -0.3622982338          0.5314
H950       H    0.5983182793    0.5027729440   -0.3180312391          0.5279
H951       H    0.5859151100    0.4657284742   -0.3448870791         -0.4378
O952       O    0.5609863092    0.5134093600   -0.3573031395          0.5187
C889       C    0.5000000000    0.5000000000    0.1353019574          0.5285
C890       C    0.5317784526    0.5014989371    0.1512105252            0.53
C891       C    0.5352644603    0.5025108653    0.1860094448          0.5313
C892       C    0.5073679935    0.5021805129    0.2071957474          0.5313
C893       C    0.4756329668    0.5006540281    0.1913972064          0.5297
C894       C    0.4706339149    0.4995641517    0.1563221860          0.5283
N895       N    0.5138157920    0.5030770084    0.2409709911         -0.4675
H896       H    0.5617585596    0.5035886383    0.1971472286         -0.4676
H897       H    0.5563034671    0.5018772346    0.1362888151          0.5301
C898       C    0.4303039862    0.4971036275    0.1487560208           0.526
H899       H    0.4520512405    0.4998075094    0.2078599628          0.5292
C900       C    0.4115763646    0.5048741451    0.1135473095         -0.4672
H901       H    0.4147711815    0.4830336407    0.0949672126          0.5125
H902       H    0.3831974793    0.5069717638    0.1183239217         -0.4652
H903       H    0.4201293641    0.5299134241    0.1020682065         -0.4444
H904       H    0.4214050789    0.4710436833    0.1574032781          0.5023
H905       H    0.4174056302    0.5157188533    0.1667057778         -0.4567
N906       N    0.4858401023    0.5040699859    0.2598848119         -0.4663
C907       C    0.4924266685    0.5021147771    0.2935825370         -0.4677
C908       C    0.5240573238    0.4960940859    0.3087971863          0.5269
C909       C    0.5283011751    0.4950186213    0.3437200131          0.5263
C910       C    0.5000000000    0.5000000000    0.3646980426          0.5311
C911       C    0.4683140645    0.5049566081    0.3500750516         -0.4645
C912       C    0.4647831941    0.5060847864    0.3151932131         -0.4638
C913       C    0.5914791670    0.5059378708    0.3446699841         -0.4638
H914       H    0.5473385322    0.4913355606    0.2927119860          0.5223
H915       H    0.4385901997    0.5106049401    0.3042346707         -0.4598
H916       H    0.4449832857    0.5088136872    0.3664092597         -0.4607
H917       H    0.6136797646    0.5004043795    0.3622982338          0.5314
H918       H    0.5983182793    0.4972270560    0.3180312391          0.5279
H919       H    0.5859151100    0.5342715258    0.3448870791         -0.4378
O920       O    0.5609863092    0.4865906400    0.3573031395          0.5187
C857       C    0.5000000000    0.8646980426    0.5000000000          0.5285
C858       C    0.4859740601    0.8487894748    0.4714449677            0.53
C859       C    0.4851776921    0.8139905552    0.4679034925          0.5313
C860       C    0.4983533344    0.7928042526    0.4924946381          0.5313
C861       C    0.5123341874    0.8086027936    0.5210249347          0.5297
C862       C    0.5137925991    0.8436778140    0.5259291560          0.5283
N863       N    0.4960262843    0.7590290089    0.4864149467         -0.4675
H864       H    0.4733335295    0.8028527714    0.4441797765         -0.4676
H865       H    0.4744677283    0.8637111849    0.4497833940          0.5301
C866       C    0.5311039774    0.8512439792    0.5624376962           0.526
H867       H    0.5229751488    0.7921400372    0.5420863770          0.5292
C868       C    0.5469487673    0.8864526905    0.5750886797         -0.4672
H869       H    0.5262788171    0.9050327874    0.5828325578          0.5125
H870       H    0.5624836758    0.8816760783    0.5989304028         -0.4652
H871       H    0.5647498075    0.8979317935    0.5555121055         -0.4444
H872       H    0.5125760014    0.8425967219    0.5828098671          0.5023
H873       H    0.5536329012    0.8332942222    0.5647489318         -0.4567
N874       N    0.5103991364    0.7401151881    0.5104367356         -0.4663
C875       C    0.5055075872    0.7064174630    0.5056119618         -0.4677
C876       C    0.4849673040    0.6912028137    0.4808159169          0.5269
C877       C    0.4819770069    0.6562799869    0.4776182583          0.5263
C878       C    0.5000000000    0.6353019574    0.5000000000          0.5311
C879       C    0.5196350429    0.6499249484    0.5253580670         -0.4645
C880       C    0.5223273677    0.6848067869    0.5279058541         -0.4638
C881       C    0.4610455505    0.6553300159    0.4170165850         -0.4638
H882       H    0.4695625048    0.7072880140    0.4627230899          0.5223
H883       H    0.5389288516    0.6957653293    0.5486638761         -0.4598
H884       H    0.5342742831    0.6335907403    0.5439294144         -0.4607
H885       H    0.4454836222    0.6377017662    0.4002442134          0.5314
H886       H    0.4501155515    0.6819687609    0.4152314028          0.5279
H887       H    0.4885457704    0.6551129209    0.4082135945         -0.4378
O888       O    0.4588194498    0.6426968605    0.4530606440          0.5187
C825       C    0.5000000000    1.1353019574    0.5000000000          0.5285
C826       C    0.4682215474    1.1512105252    0.5014989371            0.53
C827       C    0.4647355397    1.1860094448    0.5025108653          0.5313
C828       C    0.4926320065    1.2071957474    0.5021805129          0.5313
C829       C    0.5243670332    1.1913972064    0.5006540281          0.5297
C830       C    0.5293660851    1.1563221860    0.4995641517          0.5283
N831       N    0.4861842080    1.2409709911    0.5030770084         -0.4675
H832       H    0.4382414404    1.1971472286    0.5035886383         -0.4676
H833       H    0.4436965329    1.1362888151    0.5018772346          0.5301
C834       C    0.5696960138    1.1487560208    0.4971036275           0.526
H835       H    0.5479487595    1.2078599628    0.4998075094          0.5292
C836       C    0.5884236354    1.1135473095    0.5048741451         -0.4672
H837       H    0.5852288185    1.0949672126    0.4830336407          0.5125
H838       H    0.6168025207    1.1183239217    0.5069717638         -0.4652
H839       H    0.5798706359    1.1020682065    0.5299134241         -0.4444
H840       H    0.5785949211    1.1574032781    0.4710436833          0.5023
H841       H    0.5825943698    1.1667057778    0.5157188533         -0.4567
N842       N    0.5141598977    1.2598848119    0.5040699859         -0.4663
C843       C    0.5075733315    1.2935825370    0.5021147771         -0.4677
C844       C    0.4759426762    1.3087971863    0.4960940859          0.5269
C845       C    0.4716988249    1.3437200131    0.4950186213          0.5263
C846       C    0.5000000000    1.3646980426    0.5000000000          0.5311
C847       C    0.5316859355    1.3500750516    0.5049566081         -0.4645
C848       C    0.5352168059    1.3151932131    0.5060847864         -0.4638
C849       C    0.4085208330    1.3446699841    0.5059378708         -0.4638
H850       H    0.4526614678    1.2927119860    0.4913355606          0.5223
H851       H    0.5614098003    1.3042346707    0.5106049401         -0.4598
H852       H    0.5550167143    1.3664092597    0.5088136872         -0.4607
H853       H    0.3863202354    1.3622982338    0.5004043795          0.5314
H854       H    0.4016817207    1.3180312391    0.4972270560          0.5279
H855       H    0.4140848900    1.3448870791    0.5342715258         -0.4378
O856       O    0.4390136908    1.3573031395    0.4865906400          0.5187
C793       C    0.5000000000    0.6353019574    0.0000000000          0.5285
C794       C    0.5310742627    0.6512105252    0.0068196085            0.53
C795       C    0.5347034936    0.6860094448    0.0067493808          0.5313
C796       C    0.5076815593    0.7071957474   -0.0001887073          0.5313
C797       C    0.4766420611    0.6913972064   -0.0069704196          0.5297
C798       C    0.4715316022    0.6563221860   -0.0072185351          0.5283
N799       N    0.5141405780    0.7409709911    0.0006230122         -0.4675
H800       H    0.5605657796    0.6971472286    0.0126009660         -0.4676
H801       H    0.5548532958    0.6362888151    0.0128343430          0.5301
C802       C    0.4319501396    0.6487560208   -0.0153342692           0.526
H803       H    0.4536520346    0.7078599628   -0.0122876640          0.5292
C804       C    0.4158887521    0.6135473095   -0.0277091059         -0.4672
H805       H    0.4132919206    0.5949672126   -0.0057894583          0.5125
H806       H    0.3890326282    0.6183239217   -0.0371170681         -0.4652
H807       H    0.4306610624    0.6020682065   -0.0496612844         -0.4444
H808       H    0.4165783121    0.6574032781    0.0075134476          0.5023
H809       H    0.4243384902    0.6667057778   -0.0366639905         -0.4567
N810       N    0.4873864033    0.7598848119   -0.0076134531         -0.4663
C811       C    0.4932375614    0.7935825370   -0.0040121137         -0.4677
C812       C    0.5222129379    0.8087971863    0.0100297749          0.5269
C813       C    0.5260308995    0.8437200131    0.0121722190          0.5263
C814       C    0.5000000000    0.8646980426    0.0000000000          0.5311
C815       C    0.4706944330    0.8500750516   -0.0130288225         -0.4645
C816       C    0.4675786175    0.8151932131   -0.0150366885         -0.4638
C817       C    0.5898742467    0.8446699841    0.0180642209         -0.4638
H818       H    0.5434546811    0.7927119860    0.0206809049          0.5223
H819       H    0.4434633299    0.8042346707   -0.0262151342         -0.4598
H820       H    0.4491703212    0.8664092597   -0.0228224383         -0.4607
H821       H    0.6098709826    0.8622982338    0.0291825217          0.5314
H822       H    0.5942118332    0.8180312391    0.0282542698          0.5279
H823       H    0.5918725573    0.8448870791   -0.0107413600         -0.4378
O824       O    0.5553982099    0.8573031395    0.0288128302          0.5187
C761       C    0.5000000000    1.3646980426    0.0000000000          0.5285
C762       C    0.4885654164    1.3487894748    0.0296878284            0.53
C763       C    0.4865067358    1.3139905552    0.0326774912          0.5313
C764       C    0.4956092054    1.2928042526    0.0063057820          0.5313
C765       C    0.5070562522    1.3086027936   -0.0233321530          0.5297
C766       C    0.5096656045    1.3436778140   -0.0277332474          0.5283
N767       N    0.4927269498    1.2590290089    0.0121427687         -0.4675
H768       H    0.4771367334    1.3028527714    0.0574827717         -0.4676
H769       H    0.4804796387    1.3637111849    0.0528446773          0.5301
C770       C    0.5247069959    1.3512439792   -0.0652340990           0.526
H771       H    0.5152892177    1.2921400372   -0.0454462365          0.5292
C772       C    0.5232324500    1.3864526905   -0.0854561282         -0.4672
H773       H    0.5429541417    1.4050327874   -0.0755430378          0.5125
H774       H    0.5301825860    1.3816760783   -0.1130506340         -0.4652
H775       H    0.4967736706    1.3979317935   -0.0852274734         -0.4444
H776       H    0.5522434416    1.3425967219   -0.0654694793          0.5023
H777       H    0.5111034849    1.3332942222   -0.0833404157         -0.4567
N778       N    0.5005984420    1.2401151881   -0.0147210515         -0.4663
C779       C    0.5003789430    1.2064174630   -0.0078539184         -0.4677
C780       C    0.4961276013    1.1912028137    0.0240627414          0.5269
C781       C    0.4958112464    1.1562799869    0.0284292980          0.5263
C782       C    0.5000000000    1.1353019574    0.0000000000          0.5311
C783       C    0.5052786508    1.1499249484   -0.0316338793         -0.4645
C784       C    0.5053203479    1.1848067869   -0.0353403727         -0.4638
C785       C    0.4655434930    1.1553300159    0.0849496641         -0.4638
H786       H    0.4933089126    1.2072880140    0.0476575124          0.5223
H787       H    0.5092826434    1.1957653293   -0.0616235414         -0.4598
H788       H    0.5089684954    1.1335907403   -0.0549916905         -0.4607
H789       H    0.4638007563    1.1377017662    0.1077630138          0.5314
H790       H    0.4716559924    1.1819687609    0.0941848741          0.5279
H791       H    0.4404057688    1.1551129209    0.0707422873         -0.4378
O792       O    0.4935123796    1.1426968605    0.0621051659          0.5187
C729       C    0.5000000000    1.0000000000   -0.1353019574          0.5285
C730       C    0.4991751802    0.9681969100   -0.1512105252            0.53
C731       C    0.4982373913    0.9646902306   -0.1860094448          0.5313
C732       C    0.4979761966    0.9925874307   -0.2071957474          0.5313
C733       C    0.4988294787    1.0243476886   -0.1913972064          0.5297
C734       C    0.4998131181    1.0293687248   -0.1563221860          0.5283
N735       N    0.4972166116    0.9861220737   -0.2409709911         -0.4675
H736       H    0.4977215997    0.9381792357   -0.1971472286         -0.4676
H737       H    0.4993169575    0.9436693878   -0.1362888151          0.5301
C738       C    0.5014179968    1.0697417565   -0.1487560208           0.526
H739       H    0.4991758173    1.0479420620   -0.2078599628          0.5292
C740       C    0.4932521549    1.0883004143   -0.1135473095         -0.4672
H741       H    0.5151554875    1.0855693873   -0.0949672126          0.5125
H742       H    0.4905533066    1.1166284456   -0.1183239217         -0.4652
H743       H    0.4683998490    1.0792184441   -0.1020682065         -0.4444
H744       H    0.5272834043    1.0791911974   -0.1574032781          0.5023
H745       H    0.4825334792    1.0822425250   -0.1667057778         -0.4567
N746       N    0.4956307048    1.0140704211   -0.2598848119         -0.4663
C747       C    0.4977251253    1.0075267907   -0.2935825370         -0.4677
C748       C    0.5044151097    0.9760308991   -0.3087971863          0.5269
C749       C    0.5055803125    0.9718108042   -0.3437200131          0.5263
C750       C    0.5000000000    1.0000000000   -0.3646980426          0.5311
C751       C    0.4943726874    1.0315737205   -0.3500750516         -0.4645
C752       C    0.4931698997    1.0350798770   -0.3151932131         -0.4638
C753       C    0.4960030443    0.9084155000   -0.3446699841         -0.4638
H754       H    0.5096661834    0.9528558165   -0.2927119860          0.5223
H755       H    0.4880954071    1.0611711451   -0.3042346707         -0.4598
H756       H    0.4900218063    1.0548174752   -0.3664092597         -0.4607
H757       H    0.5020059982    0.8863372164   -0.3622982338          0.5314
H758       H    0.5048569068    0.9017626154   -0.3180312391          0.5279
H759       H    0.4675577871    0.9133775639   -0.3448870791         -0.4378
O760       O    0.5146994034    0.9393117113   -0.3573031395          0.5187
C697       C    0.5000000000    1.0000000000    0.1353019574          0.5285
C698       C    0.5317784526    1.0014989371    0.1512105252            0.53
C699       C    0.5352644603    1.0025108653    0.1860094448          0.5313
C700       C    0.5073679935    1.0021805129    0.2071957474          0.5313
C701       C    0.4756329668    1.0006540281    0.1913972064          0.5297
C702       C    0.4706339149    0.9995641517    0.1563221860          0.5283
N703       N    0.5138157920    1.0030770084    0.2409709911         -0.4675
H704       H    0.5617585596    1.0035886383    0.1971472286         -0.4676
H705       H    0.5563034671    1.0018772346    0.1362888151          0.5301
C706       C    0.4303039862    0.9971036275    0.1487560208           0.526
H707       H    0.4520512405    0.9998075094    0.2078599628          0.5292
C708       C    0.4115763646    1.0048741451    0.1135473095         -0.4672
H709       H    0.4147711815    0.9830336407    0.0949672126          0.5125
H710       H    0.3831974793    1.0069717638    0.1183239217         -0.4652
H711       H    0.4201293641    1.0299134241    0.1020682065         -0.4444
H712       H    0.4214050789    0.9710436833    0.1574032781          0.5023
H713       H    0.4174056302    1.0157188533    0.1667057778         -0.4567
N714       N    0.4858401023    1.0040699859    0.2598848119         -0.4663
C715       C    0.4924266685    1.0021147771    0.2935825370         -0.4677
C716       C    0.5240573238    0.9960940859    0.3087971863          0.5269
C717       C    0.5283011751    0.9950186213    0.3437200131          0.5263
C718       C    0.5000000000    1.0000000000    0.3646980426          0.5311
C719       C    0.4683140645    1.0049566081    0.3500750516         -0.4645
C720       C    0.4647831941    1.0060847864    0.3151932131         -0.4638
C721       C    0.5914791670    1.0059378708    0.3446699841         -0.4638
H722       H    0.5473385322    0.9913355606    0.2927119860          0.5223
H723       H    0.4385901997    1.0106049401    0.3042346707         -0.4598
H724       H    0.4449832857    1.0088136872    0.3664092597         -0.4607
H725       H    0.6136797646    1.0004043795    0.3622982338          0.5314
H726       H    0.5983182793    0.9972270560    0.3180312391          0.5279
H727       H    0.5859151100    1.0342715258    0.3448870791         -0.4378
O728       O    0.5609863092    0.9865906400    0.3573031395          0.5187
C665       C    0.8646980426    0.5000000000    0.5000000000          0.5285
C666       C    0.8487894748    0.4720494529    0.5151948602            0.53
C667       C    0.8139905552    0.4693526058    0.5176245237          0.5313
C668       C    0.7928042526    0.4943181422    0.5051728576          0.5313
C669       C    0.8086027936    0.5222175995    0.4899721222          0.5297
C670       C    0.8436778140    0.5262423685    0.4868130741          0.5283
N671       N    0.7590290089    0.4889051088    0.5087890546         -0.4675
H672       H    0.8028527714    0.4459749799    0.5301379363         -0.4676
H673       H    0.8637111849    0.4501394331    0.5262207605          0.5301
C674       C    0.8512439792    0.5614710985    0.4670268691           0.526
H675       H    0.7921400372    0.5430745693    0.4789357633          0.5292
C676       C    0.8864526905    0.5817133024    0.4658615643         -0.4672
H677       H    0.9050327874    0.5693218917    0.4475949985          0.5125
H678       H    0.8816760783    0.6081709132    0.4553851160         -0.4652
H679       H    0.8979317935    0.5849242493    0.4921257816         -0.4444
H680       H    0.8425967219    0.5581268041    0.4396932463          0.5023
H681       H    0.8332942222    0.5811913819    0.4781626062         -0.4567
N682       N    0.7401151881    0.5145185200    0.4974939942         -0.4663
C683       C    0.7064174630    0.5077381127    0.4986038467         -0.4677
C684       C    0.6912028137    0.4766443418    0.5069659331          0.5269
C685       C    0.6562799869    0.4723558995    0.5078469325          0.5263
C686       C    0.6353019574    0.5000000000    0.5000000000          0.5311
C687       C    0.6499249484    0.5306799139    0.4906560525         -0.4645
C688       C    0.6848067869    0.5343495728    0.4901331418         -0.4638
C689       C    0.6553300159    0.4202471573    0.5452015528         -0.4638
H690       H    0.7072880140    0.4536157838    0.5128262865          0.5223
H691       H    0.6957653293    0.5598951577    0.4827895842         -0.4598
H692       H    0.6335907403    0.5533603355    0.4839627144         -0.4607
H693       H    0.6377017662    0.3978536037    0.5498935478          0.5314
H694       H    0.6819687609    0.4102960588    0.5403407512          0.5279
H695       H    0.6551129209    0.4376001345    0.5682803075         -0.4378
O696       O    0.6426968605    0.4392641561    0.5145016592          0.5187
C633       C    1.1353019574    0.5000000000    0.5000000000          0.5285
C634       C    1.1512105252    0.5289262164    0.4867564785            0.53
C635       C    1.1860094448    0.5324880555    0.4860567988          0.5313
C636       C    1.2071957474    0.5075474008    0.4985582284          0.5313
C637       C    1.1913972064    0.4786471381    0.5117573529          0.5297
C638       C    1.1563221860    0.4737050382    0.5130817392          0.5283
N639       N    1.2409709911    0.5136881784    0.4963975198         -0.4675
H640       H    1.1971472286    0.5565253611    0.4748627457         -0.4676
H641       H    1.1362888151    0.5508929486    0.4758440028          0.5301
C642       C    1.1487560208    0.4367388362    0.5293930003           0.526
H643       H    1.2078599628    0.4573038690    0.5218211134          0.5292
C644       C    1.1135473095    0.4236612700    0.5448875805         -0.4672
H645       H    1.0949672126    0.4164828638    0.5240145124          0.5125
H646       H    1.1183239217    0.3994055449    0.5597678002         -0.4652
H647       H    1.1020682065    0.4427460757    0.5632148684         -0.4444
H648       H    1.1574032781    0.4168785146    0.5103173911          0.5023
H649       H    1.1667057778    0.4338152558    0.5518506693         -0.4567
N650       N    1.2598848119    0.4892840833    0.5101112125         -0.4663
C651       C    1.2935825370    0.4942402097    0.5053527982         -0.4677
C652       C    1.3087971863    0.5195861414    0.4854950333          0.5269
C653       C    1.3437200131    0.5228640064    0.4825928791          0.5263
C654       C    1.3646980426    0.5000000000    0.5000000000          0.5311
C655       C    1.3500750516    0.4741168937    0.5189375626         -0.4645
C656       C    1.3151932131    0.4714967697    0.5215595433         -0.4638
C657       C    1.3446699841    0.5840129479    0.4633186575         -0.4638
H658       H    1.2927119860    0.5380915589    0.4705883990          0.5223
H659       H    1.3042346707    0.4502945727    0.5375898767         -0.4598
H660       H    1.3664092597    0.4551539702    0.5330658970         -0.4607
H661       H    1.3622982338    0.6012026761    0.4482190117          0.5314
H662       H    1.3180312391    0.5860949657    0.4524412978          0.5279
H663       H    1.3448870791    0.5920641653    0.4910482921         -0.4378
O664       O    1.3573031395    0.5480428337    0.4601123204          0.5187
C601       C    0.6353019574    0.5000000000    0.0000000000          0.5285
C602       C    0.6512105252    0.4766735611   -0.0216331715            0.53
C603       C    0.6860094448    0.4746610917   -0.0246541343          0.5313
C604       C    0.7071957474    0.4957733541   -0.0064169641          0.5313
C605       C    0.6913972064    0.5190488366    0.0152092697          0.5297
C606       C    0.6563221860    0.5221676883    0.0192652671          0.5283
N607       N    0.7409709911    0.4914223481   -0.0112591287         -0.4675
H608       H    0.6971472286    0.4551027147   -0.0425585688         -0.4676
H609       H    0.6362888151    0.4581694892   -0.0377334439          0.5301
C610       C    0.6487560208    0.5514113091    0.0471465864           0.526
H611       H    0.7078599628    0.5365299605    0.0310593395          0.5292
C612       C    0.6135473095    0.5707370865    0.0532800261         -0.4672
H613       H    0.5949672126    0.5542144305    0.0679161570          0.5125
H614       H    0.6183239217    0.5937834240    0.0699721640         -0.4652
H615       H    0.6020682065    0.5803414403    0.0286248911         -0.4444
H616       H    0.6574032781    0.5414133670    0.0728049651          0.5023
H617       H    0.6667057778    0.5732724484    0.0412317908         -0.4567
N618       N    0.7598848119    0.5134483123    0.0060175065         -0.4663
C619       C    0.7935825370    0.5071527549    0.0032658428         -0.4677
C620       C    0.8087971863    0.4790914528   -0.0125237234          0.5269
C621       C    0.8437200131    0.4751539299   -0.0144375707          0.5263
C622       C    0.8646980426    0.5000000000    0.0000000000          0.5311
C623       C    0.8500750516    0.5274175546    0.0166386350         -0.4645
C624       C    0.8151932131    0.5308440288    0.0180525324         -0.4638
C625       C    0.8446699841    0.4338975585   -0.0635150653         -0.4638
H626       H    0.7927119860    0.4582265292   -0.0238953192          0.5223
H627       H    0.8042346707    0.5537811684    0.0314835553         -0.4598
H628       H    0.8664092597    0.5477392165    0.0287312920         -0.4607
H629       H    0.8622982338    0.4133590849   -0.0735975830          0.5314
H630       H    0.8180312391    0.4230536576   -0.0612652728          0.5279
H631       H    0.8448870791    0.4564174453   -0.0815874042         -0.4378
O632       O    0.8573031395    0.4447345784   -0.0290667168          0.5187
C569       C    1.1353019574    0.5000000000    0.0000000000          0.5285
C570       C    1.1512105252    0.5065567595    0.0311307848            0.53
C571       C    1.1860094448    0.5064558641    0.0347592927          0.5313
C572       C    1.2071957474    0.4997463834    0.0076796903          0.5313
C573       C    1.1913972064    0.4932272250   -0.0234160112          0.5297
C574       C    1.1563221860    0.4930223063   -0.0285283843          0.5283
N575       N    1.2409709911    0.5005034893    0.0141453381         -0.4675
H576       H    1.1971472286    0.5120886807    0.0606701063         -0.4676
H577       H    1.1362888151    0.5123703250    0.0549597987          0.5301
C578       C    1.1487560208    0.4852413609   -0.0681770188           0.526
H579       H    1.2078599628    0.4881044568   -0.0464501522          0.5292
C580       C    1.1135473095    0.4730026993   -0.0843424112         -0.4672
H581       H    1.0949672126    0.4949435098   -0.0867539092          0.5125
H582       H    1.1183239217    0.4638220315   -0.1112770818         -0.4652
H583       H    1.1020682065    0.4509264654   -0.0697561441         -0.4444
H584       H    1.1574032781    0.5082181676   -0.0833552135          0.5023
H585       H    1.1667057778    0.4639767266   -0.0759686517         -0.4567
N586       N    1.2598848119    0.4924934150   -0.0126774868         -0.4663
C587       C    1.2935825370    0.4960451782   -0.0067961031         -0.4677
C588       C    1.3087971863    0.5098416975    0.0222969053          0.5269
C589       C    1.3437200131    0.5119517998    0.0261328362          0.5263
C590       C    1.3646980426    0.5000000000    0.0000000000          0.5311
C591       C    1.3500750516    0.4872193011   -0.0294146258         -0.4645
C592       C    1.3151932131    0.4852378383   -0.0325472983         -0.4638
C593       C    1.3446699841    0.5173040576    0.0900236963         -0.4638
H594       H    1.2927119860    0.5203129352    0.0436279017          0.5223
H595       H    1.3042346707    0.4742635876   -0.0567561927         -0.4598
H596       H    1.3664092597    0.4776079332   -0.0510207338         -0.4607
H597       H    1.3622982338    0.5282529709    0.1101136778          0.5314
H598       H    1.3180312391    0.5274570861    0.0944472429          0.5279
H599       H    1.3448870791    0.4884826178    0.0917785025         -0.4378
O600       O    1.3573031395    0.5283436366    0.0556397260          0.5187
C537       C    1.0000000000    0.5000000000   -0.3646980426          0.5285
C538       C    1.0317784526    0.5014989371   -0.3487894748            0.53
C539       C    1.0352644603    0.5025108653   -0.3139905552          0.5313
C540       C    1.0073679935    0.5021805129   -0.2928042526          0.5313
C541       C    0.9756329668    0.5006540281   -0.3086027936          0.5297
C542       C    0.9706339149    0.4995641517   -0.3436778140          0.5283
N543       N    1.0138157920    0.5030770084   -0.2590290089         -0.4675
H544       H    1.0617585596    0.5035886383   -0.3028527714         -0.4676
H545       H    1.0563034671    0.5018772346   -0.3637111849          0.5301
C546       C    0.9303039862    0.4971036275   -0.3512439792           0.526
H547       H    0.9520512405    0.4998075094   -0.2921400372          0.5292
C548       C    0.9115763646    0.5048741451   -0.3864526905         -0.4672
H549       H    0.9147711815    0.4830336407   -0.4050327874          0.5125
H550       H    0.8831974793    0.5069717638   -0.3816760783         -0.4652
H551       H    0.9201293641    0.5299134241   -0.3979317935         -0.4444
H552       H    0.9214050789    0.4710436833   -0.3425967219          0.5023
H553       H    0.9174056302    0.5157188533   -0.3332942222         -0.4567
N554       N    0.9858401023    0.5040699859   -0.2401151881         -0.4663
C555       C    0.9924266685    0.5021147771   -0.2064174630         -0.4677
C556       C    1.0240573238    0.4960940859   -0.1912028137          0.5269
C557       C    1.0283011751    0.4950186213   -0.1562799869          0.5263
C558       C    1.0000000000    0.5000000000   -0.1353019574          0.5311
C559       C    0.9683140645    0.5049566081   -0.1499249484         -0.4645
C560       C    0.9647831941    0.5060847864   -0.1848067869         -0.4638
C561       C    1.0914791670    0.5059378708   -0.1553300159         -0.4638
H562       H    1.0473385322    0.4913355606   -0.2072880140          0.5223
H563       H    0.9385901997    0.5106049401   -0.1957653293         -0.4598
H564       H    0.9449832857    0.5088136872   -0.1335907403         -0.4607
H565       H    1.1136797646    0.5004043795   -0.1377017662          0.5314
H566       H    1.0983182793    0.4972270560   -0.1819687609          0.5279
H567       H    1.0859151100    0.5342715258   -0.1551129209         -0.4378
O568       O    1.0609863092    0.4865906400   -0.1426968605          0.5187
C505       C    1.0000000000    0.5000000000    0.3646980426          0.5285
C506       C    1.0317784526    0.4985010629    0.3487894748            0.53
C507       C    1.0352644603    0.4974891347    0.3139905552          0.5313
C508       C    1.0073679935    0.4978194871    0.2928042526          0.5313
C509       C    0.9756329668    0.4993459719    0.3086027936          0.5297
C510       C    0.9706339149    0.5004358483    0.3436778140          0.5283
N511       N    1.0138157920    0.4969229916    0.2590290089         -0.4675
H512       H    1.0617585596    0.4964113617    0.3028527714         -0.4676
H513       H    1.0563034671    0.4981227654    0.3637111849          0.5301
C514       C    0.9303039862    0.5028963725    0.3512439792           0.526
H515       H    0.9520512405    0.5001924906    0.2921400372          0.5292
C516       C    0.9115763646    0.4951258549    0.3864526905         -0.4672
H517       H    0.9147711815    0.5169663593    0.4050327874          0.5125
H518       H    0.8831974793    0.4930282362    0.3816760783         -0.4652
H519       H    0.9201293641    0.4700865759    0.3979317935         -0.4444
H520       H    0.9214050789    0.5289563167    0.3425967219          0.5023
H521       H    0.9174056302    0.4842811467    0.3332942222         -0.4567
N522       N    0.9858401023    0.4959300141    0.2401151881         -0.4663
C523       C    0.9924266685    0.4978852229    0.2064174630         -0.4677
C524       C    1.0240573238    0.5039059141    0.1912028137          0.5269
C525       C    1.0283011751    0.5049813787    0.1562799869          0.5263
C526       C    1.0000000000    0.5000000000    0.1353019574          0.5311
C527       C    0.9683140645    0.4950433919    0.1499249484         -0.4645
C528       C    0.9647831941    0.4939152136    0.1848067869         -0.4638
C529       C    1.0914791670    0.4940621292    0.1553300159         -0.4638
H530       H    1.0473385322    0.5086644394    0.2072880140          0.5223
H531       H    0.9385901997    0.4893950599    0.1957653293         -0.4598
H532       H    0.9449832857    0.4911863128    0.1335907403         -0.4607
H533       H    1.1136797646    0.4995956205    0.1377017662          0.5314
H534       H    1.0983182793    0.5027729440    0.1819687609          0.5279
H535       H    1.0859151100    0.4657284742    0.1551129209         -0.4378
O536       O    1.0609863092    0.5134093600    0.1426968605          0.5187
C473       C    1.0000000000   -0.1353019574    0.5000000000          0.5285
C474       C    1.0317784526   -0.1512105252    0.5014989371            0.53
C475       C    1.0352644603   -0.1860094448    0.5025108653          0.5313
C476       C    1.0073679935   -0.2071957474    0.5021805129          0.5313
C477       C    0.9756329668   -0.1913972064    0.5006540281          0.5297
C478       C    0.9706339149   -0.1563221860    0.4995641517          0.5283
N479       N    1.0138157920   -0.2409709911    0.5030770084         -0.4675
H480       H    1.0617585596   -0.1971472286    0.5035886383         -0.4676
H481       H    1.0563034671   -0.1362888151    0.5018772346          0.5301
C482       C    0.9303039862   -0.1487560208    0.4971036275           0.526
H483       H    0.9520512405   -0.2078599628    0.4998075094          0.5292
C484       C    0.9115763646   -0.1135473095    0.5048741451         -0.4672
H485       H    0.9147711815   -0.0949672126    0.4830336407          0.5125
H486       H    0.8831974793   -0.1183239217    0.5069717638         -0.4652
H487       H    0.9201293641   -0.1020682065    0.5299134241         -0.4444
H488       H    0.9214050789   -0.1574032781    0.4710436833          0.5023
H489       H    0.9174056302   -0.1667057778    0.5157188533         -0.4567
N490       N    0.9858401023   -0.2598848119    0.5040699859         -0.4663
C491       C    0.9924266685   -0.2935825370    0.5021147771         -0.4677
C492       C    1.0240573238   -0.3087971863    0.4960940859          0.5269
C493       C    1.0283011751   -0.3437200131    0.4950186213          0.5263
C494       C    1.0000000000   -0.3646980426    0.5000000000          0.5311
C495       C    0.9683140645   -0.3500750516    0.5049566081         -0.4645
C496       C    0.9647831941   -0.3151932131    0.5060847864         -0.4638
C497       C    1.0914791670   -0.3446699841    0.5059378708         -0.4638
H498       H    1.0473385322   -0.2927119860    0.4913355606          0.5223
H499       H    0.9385901997   -0.3042346707    0.5106049401         -0.4598
H500       H    0.9449832857   -0.3664092597    0.5088136872         -0.4607
H501       H    1.1136797646   -0.3622982338    0.5004043795          0.5314
H502       H    1.0983182793   -0.3180312391    0.4972270560          0.5279
H503       H    1.0859151100   -0.3448870791    0.5342715258         -0.4378
O504       O    1.0609863092   -0.3573031395    0.4865906400          0.5187
C441       C    1.0000000000    0.1353019574    0.5000000000          0.5285
C442       C    1.0006652383    0.1512105252    0.5318068282            0.53
C443       C    1.0015854208    0.1860094448    0.5353181688          0.5313
C444       C    1.0019865855    0.2071957474    0.5074226304          0.5313
C445       C    1.0012926704    0.1913972064    0.4756584909          0.5297
C446       C    1.0003342363    0.1563221860    0.4706325826          0.5283
N447       N    1.0027137212    0.2409709911    0.5138917172         -0.4675
H448       H    1.0019681877    0.1971472286    0.5618314179         -0.4676
H449       H    1.0004003966    0.1362888151    0.5563333303          0.5301
C450       C    0.9989319484    0.1487560208    0.4302520066           0.526
H451       H    1.0010647203    0.2078599628    0.4520626768          0.5292
C452       C    1.0071908050    0.1135473095    0.4117345543         -0.4672
H453       H    0.9852740452    0.0949672126    0.4143556475          0.5125
H454       H    1.0100317544    0.1183239217    0.3834204210         -0.4652
H455       H    1.0319972295    0.1020682065    0.4209411059         -0.4444
H456       H    0.9731142787    0.1574032781    0.4206729057          0.5023
H457       H    1.0178789505    0.1667057778    0.4178461480         -0.4567
N458       N    1.0044398381    0.2598848119    0.4859516789         -0.4663
C459       C    1.0023126115    0.2935825370    0.4924847182         -0.4677
C460       C    0.9954646816    0.3087971863    0.5239466465          0.5269
C461       C    0.9942783193    0.3437200131    0.5281608419          0.5263
C462       C    1.0000000000    0.3646980426    0.5000000000          0.5311
C463       C    1.0057856620    0.3500750516    0.4684549118         -0.4645
C464       C    1.0070060266    0.3151932131    0.4649548344         -0.4638
C465       C    1.0035373827    0.3446699841    0.5916034018         -0.4638
H466       H    0.9900973937    0.2927119860    0.5470950903          0.5223
H467       H    1.0122113675    0.3042346707    0.4388893558         -0.4598
H468       H    1.0102531132    0.3664092597    0.4452332802         -0.4607
H469       H    0.9974237273    0.3622982338    0.6136512878          0.5314
H470       H    0.9946502511    0.3180312391    0.5982117786          0.5279
H471       H    1.0320071789    0.3448870791    0.5867841236         -0.4378
O472       O    0.9849962799    0.3573031395    0.5606137710          0.5187
C409       C    0.8646980426   -0.0000000000    0.5000000000          0.5285
C410       C    0.8487894748    0.0238787535    0.5210219407            0.53
C411       C    0.8139905552    0.0270875467    0.5227189661          0.5313
C412       C    0.7928042526    0.0068110814    0.5035568433          0.5313
C413       C    0.8086027936   -0.0170556228    0.4825848976          0.5297
C414       C    0.8436778140   -0.0214059136    0.4798916986          0.5283
N415       N    0.7590290089    0.0120679796    0.5073964828         -0.4675
H416       H    0.8028527714    0.0468760185    0.5403687613         -0.4676
H417       H    0.8637111849    0.0417657944    0.5378050636          0.5301
C418       C    0.8512439792   -0.0520985586    0.4536139729           0.526
H419       H    0.7921400372   -0.0345904117    0.4667942173          0.5292
C420       C    0.8864526905   -0.0601527455    0.4350065866         -0.4672
H421       H    0.9050327874   -0.0730450453    0.4529231457          0.5125
H422       H    0.8816760783   -0.0790874440    0.4137642154         -0.4652
H423       H    0.8979317935   -0.0365938606    0.4229609138         -0.4444
H424       H    0.8425967219   -0.0766157991    0.4661525596          0.5023
H425       H    0.8332942222   -0.0484222331    0.4312671868         -0.4567
N426       N    0.7401151881   -0.0073451576    0.4872283067         -0.4663
C427       C    0.7064174630   -0.0039716466    0.4932137156         -0.4677
C428       C    0.6912028137    0.0145716636    0.5195365712          0.5269
C429       C    0.6562799869    0.0168734556    0.5232606350          0.5263
C430       C    0.6353019574   -0.0000000000    0.5000000000          0.5311
C431       C    0.6499249484   -0.0193230106    0.4744033648         -0.4645
C432       C    0.6848067869   -0.0210757884    0.4711372353         -0.4638
C433       C    0.6553300159    0.0698672850    0.5593486208         -0.4638
H434       H    0.7072880140    0.0279926860    0.5391461195          0.5223
H435       H    0.6957653293   -0.0367550213    0.4496740948         -0.4598
H436       H    0.6335907403   -0.0334065308    0.4554071347         -0.4607
H437       H    0.6377017662    0.0819728474    0.5787636000          0.5314
H438       H    0.6819687609    0.0687243539    0.5703643123          0.5279
H439       H    0.6551129209    0.0855724308    0.5351184096         -0.4378
O440       O    0.6426968605    0.0345004702    0.5520466945          0.5187
C377       C    1.3646980426   -0.0000000000    0.5000000000          0.5285
C378       C    1.3487894748    0.0175044345    0.5265652335            0.53
C379       C    1.3139905552    0.0201534877    0.5290469196          0.5313
C380       C    1.2928042526    0.0056348863    0.5052239851          0.5313
C381       C    1.3086027936   -0.0118710812    0.4787101552          0.5297
C382       C    1.3436778140   -0.0153592195    0.4749669959          0.5283
N383       N    1.2590290089    0.0096959529    0.5103117694         -0.4675
H384       H    1.3028527714    0.0345993112    0.5512824109         -0.4676
H385       H    1.3637111849    0.0303439474    0.5474641894          0.5301
C386       C    1.3512439792   -0.0380541262    0.4415379884           0.526
H387       H    1.2921400372   -0.0246319497    0.4588613607          0.5292
C388       C    1.3864526905   -0.0409273144    0.4214668763         -0.4672
H389       H    1.4050327874   -0.0580803784    0.4353588482          0.5125
H390       H    1.3816760783   -0.0536039734    0.3959901525         -0.4652
H391       H    1.3979317935   -0.0150287846    0.4160460420         -0.4444
H392       H    1.3425967219   -0.0650069512    0.4471821414          0.5023
H393       H    1.3332942222   -0.0286262062    0.4209465207         -0.4567
N394       N    1.2401151881   -0.0037249836    0.4857454574         -0.4663
C395       C    1.2064174630   -0.0020456300    0.4924076993         -0.4677
C396       C    1.1912028137    0.0089163636    0.5226828009          0.5269
C397       C    1.1562799869    0.0101569170    0.5268813631          0.5263
C398       C    1.1353019574   -0.0000000000    0.5000000000          0.5311
C399       C    1.1499249484   -0.0119053330    0.4702203170         -0.4645
C400       C    1.1848067869   -0.0127367449    0.4666080344         -0.4638
C401       C    1.1553300159    0.0517849771    0.5756439849         -0.4638
H402       H    1.2072880140    0.0167034433    0.5451331820          0.5223
H403       H    1.1957653293   -0.0222146010    0.4417750927         -0.4598
H404       H    1.1335907403   -0.0204929677    0.4481872776         -0.4607
H405       H    1.1377017662    0.0583541770    0.5975604552          0.5314
H406       H    1.1819687609    0.0477832435    0.5859705468          0.5279
H407       H    1.1551129209    0.0733133441    0.5564012162         -0.4378
O408       O    1.1426968605    0.0195866545    0.5592916842          0.5187
C345       C   -0.0000000000   -0.1353019574    0.0000000000          0.5285
C346       C   -0.0316206155   -0.1512105252    0.0035005047            0.53
C347       C   -0.0352221450   -0.1860094448    0.0030474763          0.5313
C348       C   -0.0076186967   -0.2071957474   -0.0009987118          0.5313
C349       C    0.0239633475   -0.1913972064   -0.0044652028          0.5297
C350       C    0.0290714375   -0.1563221860   -0.0041723423          0.5283
N351       N   -0.0141273167   -0.2409709911   -0.0008735068         -0.4675
H352       H   -0.0615577085   -0.1971472286    0.0061356766         -0.4676
H353       H   -0.0559017972   -0.1362888151    0.0069709031          0.5301
C354       C    0.0692885517   -0.1487560208   -0.0080634927           0.526
H355       H    0.0473862882   -0.2078599628   -0.0073253173          0.5292
C356       C    0.0865667604   -0.1135473095   -0.0186733116         -0.4672
H357       H    0.0868346847   -0.0949672126    0.0033979979          0.5125
H358       H    0.1142661075   -0.1183239217   -0.0251930750         -0.4652
H359       H    0.0741948499   -0.1020682065   -0.0420625211         -0.4444
H360       H    0.0821620726   -0.1574032781    0.0162795494          0.5023
H361       H    0.0791097580   -0.1667057778   -0.0284703084         -0.4567
N362       N    0.0133469583   -0.2598848119   -0.0062390860         -0.4663
C363       C    0.0071482584   -0.2935825370   -0.0032756732         -0.4677
C364       C   -0.0231477695   -0.3087971863    0.0076283524          0.5269
C365       C   -0.0271706002   -0.3437200131    0.0093557002          0.5263
C366       C    0.0000000000   -0.3646980426    0.0000000000          0.5311
C367       C    0.0305174079   -0.3500750516   -0.0098617590         -0.4645
C368       C    0.0338278078   -0.3151932131   -0.0115294173         -0.4638
C369       C   -0.0912791879   -0.3446699841    0.0084738513         -0.4638
H370       H   -0.0453953791   -0.2927119860    0.0159771303          0.5223
H371       H    0.0589885761   -0.3042346707   -0.0200991596         -0.4598
H372       H    0.0529552668   -0.3664092597   -0.0173280021         -0.4607
H373       H   -0.1123380758   -0.3622982338    0.0174186432          0.5314
H374       H   -0.0966684472   -0.3180312391    0.0181489553          0.5279
H375       H   -0.0902248839   -0.3448870791   -0.0203817058         -0.4378
O376       O   -0.0581307580   -0.3573031395    0.0228025398          0.5187
C313       C    0.0000000000    0.1353019574    0.0000000000          0.5285
C314       C   -0.0091107626    0.1512105252    0.0304813199            0.53
C315       C   -0.0093105219    0.1860094448    0.0341057296          0.5313
C316       C   -0.0003828528    0.2071957474    0.0076743331          0.5313
C317       C    0.0086875340    0.1913972064   -0.0227751358          0.5297
C318       C    0.0093148684    0.1563221860   -0.0278530096          0.5283
N319       N   -0.0016724820    0.2409709911    0.0140551376         -0.4675
H320       H   -0.0170684875    0.1971472286    0.0594614559         -0.4676
H321       H   -0.0168765596    0.1362888151    0.0537474293          0.5301
C322       C    0.0203505855    0.1487560208   -0.0667216381           0.526
H323       H    0.0156991170    0.2078599628   -0.0453062723          0.5292
C324       C    0.0338851659    0.1135473095   -0.0818186538         -0.4672
H325       H    0.0122192144    0.0949672126   -0.0860377804          0.5125
H326       H    0.0452635489    0.1183239217   -0.1079010912         -0.4652
H327       H    0.0546784477    0.1020682065   -0.0654553190         -0.4444
H328       H   -0.0012911893    0.1574032781   -0.0837494044          0.5023
H329       H    0.0421871293    0.1667057778   -0.0727266003         -0.4567
N330       N    0.0085300667    0.2598848119   -0.0120127204         -0.4663
C331       C    0.0045037240    0.2935825370   -0.0064454715         -0.4677
C332       C   -0.0116533063    0.3087971863    0.0214058741          0.5269
C333       C   -0.0140736450    0.3437200131    0.0250540049          0.5263
C334       C    0.0000000000    0.3646980426    0.0000000000          0.5311
C335       C    0.0151713132    0.3500750516   -0.0282559326         -0.4645
C336       C    0.0174052495    0.3151932131   -0.0312138644         -0.4638
C337       C   -0.0246953824    0.3446699841    0.0882826959         -0.4638
H338       H   -0.0238540509    0.2927119860    0.0417970501          0.5223
H339       H    0.0303454668    0.3042346707   -0.0544314337         -0.4598
H340       H    0.0265379073    0.3664092597   -0.0489924424         -0.4607
H341       H   -0.0372694528    0.3622982338    0.1073975805          0.5314
H342       H   -0.0351796868    0.3180312391    0.0918507643          0.5279
H343       H    0.0038819427    0.3448870791    0.0924168498         -0.4378
O344       O   -0.0328513433    0.3573031395    0.0531030140          0.5187
C281       C   -0.3646980426   -0.0000000000    0.0000000000          0.5285
C282       C   -0.3487894748    0.0299068288    0.0108488918            0.53
C283       C   -0.3139905552    0.0329363752    0.0128484160          0.5313
C284       C   -0.2928042526    0.0063908605    0.0042660130          0.5313
C285       C   -0.3086027936   -0.0234663295   -0.0065963202          0.5297
C286       C   -0.3436778140   -0.0279178578   -0.0091186696          0.5283
N287       N   -0.2590290089    0.0122833674    0.0070329920         -0.4675
H288       H   -0.3028527714    0.0579210220    0.0217290868         -0.4676
H289       H   -0.3637111849    0.0532181222    0.0184779840          0.5301
C290       C   -0.3512439792   -0.0657070886   -0.0234201157           0.526
H291       H   -0.2921400372   -0.0457379517   -0.0143930663          0.5292
C292       C   -0.3864526905   -0.0858962312   -0.0215484118         -0.4672
H293       H   -0.4050327874   -0.0763726647   -0.0414611256          0.5125
H294       H   -0.3816760783   -0.1136220045   -0.0279548643         -0.4652
H295       H   -0.3979317935   -0.0851476010    0.0049007630         -0.4444
H296       H   -0.3425967219   -0.0664836234   -0.0509466163          0.5023
H297       H   -0.3332942222   -0.0835425452   -0.0094633716         -0.4567
N298       N   -0.2401151881   -0.0147299697   -0.0003089996         -0.4663
C299       C   -0.2064174630   -0.0078598491   -0.0002245093         -0.4677
C300       C   -0.1912028137    0.0241342014    0.0033987227          0.5269
C301       C   -0.1562799869    0.0285061323    0.0036291965          0.5263
C302       C   -0.1353019574   -0.0000000000    0.0000000000          0.5311
C303       C   -0.1499249484   -0.0317315153   -0.0046559004         -0.4645
C304       C   -0.1848067869   -0.0354381123   -0.0046247422         -0.4638
C305       C   -0.1553300159    0.0856104620    0.0327802548         -0.4638
H306       H   -0.2072880140    0.0477798133    0.0057531365          0.5223
H307       H   -0.1957653293   -0.0617940790   -0.0080697043         -0.4598
H308       H   -0.1335907403   -0.0551573348   -0.0078859590         -0.4607
H309       H   -0.1377017662    0.1084536568    0.0340742824          0.5314
H310       H   -0.1819687609    0.0947237533    0.0264874277          0.5279
H311       H   -0.1551129209    0.0718998850    0.0581923546         -0.4378
O312       O   -0.1426968605    0.0622206772    0.0052657553          0.5187
C249       C    0.3646980426   -0.0000000000    0.0000000000          0.5285
C250       C    0.3487894748    0.0317481722   -0.0020421610            0.53
C251       C    0.3139905552    0.0352163652   -0.0031135554          0.5313
C252       C    0.2928042526    0.0073296271   -0.0023061940          0.5313
C253       C    0.3086027936   -0.0243746545   -0.0002372319          0.5297
C254       C    0.3436778140   -0.0293543374    0.0009379739          0.5283
N255       N    0.2590290089    0.0137611518   -0.0033128222         -0.4675
H256       H    0.3028527714    0.0616881592   -0.0046442463         -0.4676
H257       H    0.3637111849    0.0562631311   -0.0028398053          0.5301
C258       C    0.3512439792   -0.0696362911    0.0040878200           0.526
H259       H    0.2921400372   -0.0479384560    0.0010124339          0.5292
C260       C    0.3864526905   -0.0884940577   -0.0033613003         -0.4672
H261       H    0.4050327874   -0.0849262137    0.0184213757          0.5125
H262       H    0.3816760783   -0.1169046645   -0.0049733051         -0.4652
H263       H    0.3979317935   -0.0803705055   -0.0285431826         -0.4444
H264       H    0.3425967219   -0.0780882462    0.0302961336          0.5023
H265       H    0.3332942222   -0.0828510998   -0.0143041089         -0.4567
N266       N    0.2401151881   -0.0142274279   -0.0038272424         -0.4663
C267       C    0.2064174630   -0.0076083888   -0.0019849564         -0.4677
C268       C    0.1912028137    0.0241206008    0.0034939388          0.5269
C269       C    0.1562799869    0.0283822230    0.0044966720          0.5263
C270       C    0.1353019574   -0.0000000000    0.0000000000          0.5311
C271       C    0.1499249484   -0.0317660649   -0.0044140223         -0.4645
C272       C    0.1848067869   -0.0353157119   -0.0054816542         -0.4638
C273       C    0.1553300159    0.0913642463   -0.0075013872         -0.4638
H274       H    0.2072880140    0.0474797803    0.0078536364          0.5223
H275       H    0.1957653293   -0.0615821752   -0.0095532207         -0.4598
H276       H    0.1335907403   -0.0551593919   -0.0078715578         -0.4607
H277       H    0.1377017662    0.1136562256   -0.0023483574          0.5314
H278       H    0.1819687609    0.0983513221    0.0010911982          0.5279
H279       H    0.1551129209    0.0853164692   -0.0357357480         -0.4378
O280       O    0.1426968605    0.0612067044    0.0123644727          0.5187
C217       C   -0.0000000000    0.0000000000   -0.1353019574          0.5285
C218       C    0.0317794485   -0.0014776707   -0.1512105252            0.53
C219       C    0.0352661327   -0.0024872659   -0.1860094448          0.5313
C220       C    0.0073694510   -0.0021755817   -0.2071957474          0.5313
C221       C   -0.0243665901   -0.0006703342   -0.1913972064          0.5297
C222       C   -0.0293663702    0.0004161966   -0.1563221860          0.5283
N223       N    0.0138178481   -0.0030677622   -0.2409709911         -0.4675
H224       H    0.0617609472   -0.0035473089   -0.1971472286         -0.4676
H225       H    0.0563047107   -0.0018395561   -0.1362888151          0.5301
C226       C   -0.0696979365    0.0028497315   -0.1487560208           0.526
H227       H   -0.0479488775    0.0001604034   -0.2078599628          0.5292
C228       C   -0.0884203538   -0.0049333168   -0.1135473095         -0.4672
H229       H   -0.0852401533    0.0169093207   -0.0949672126          0.5125
H230       H   -0.1167978291   -0.0070499260   -0.1183239217         -0.4652
H231       H   -0.0798506001   -0.0299668666   -0.1020682065         -0.4444
H232       H   -0.0786142810    0.0289037148   -0.1574032781          0.5023
H233       H   -0.0825838323   -0.0157741216   -0.1667057778         -0.4567
N234       N   -0.0141571709   -0.0040794607   -0.2598848119         -0.4663
C235       C   -0.0075719146   -0.0021198447   -0.2935825370         -0.4677
C236       C    0.0240547046    0.0039220123   -0.3087971863          0.5269
C237       C    0.0282978352    0.0050003166   -0.3437200131          0.5263
C238       C    0.0000000000    0.0000000000   -0.3646980426          0.5311
C239       C   -0.0316826115   -0.0049778111   -0.3500750516         -0.4645
C240       C   -0.0352127261   -0.0061083520   -0.3151932131         -0.4638
C241       C    0.0914831201   -0.0058766520   -0.3446699841         -0.4638
H242       H    0.0473327234    0.0086961162   -0.2927119860          0.5223
H243       H   -0.0614026898   -0.0106460329   -0.3042346707         -0.4598
H244       H   -0.0550108039   -0.0088505022   -0.3664092597         -0.4607
H245       H    0.1136800097   -0.0003283054   -0.3622982338          0.5314
H246       H    0.0983164017    0.0028387376   -0.3180312391          0.5279
H247       H    0.0859380251   -0.0342140241   -0.3448870791         -0.4378
O248       O    0.0609773221    0.0134501688   -0.3573031395          0.5187
C185       C    0.0000000000    0.0000000000    0.3646980426          0.5285
C186       C    0.0216533905    0.0233076713    0.3487894748            0.53
C187       C    0.0246760971    0.0253175204    0.3139905552          0.5313
C188       C    0.0064206268    0.0042210799    0.2928042526          0.5313
C189       C   -0.0152257818   -0.0190356410    0.3086027936          0.5297
C190       C   -0.0192844822   -0.0221509744    0.3436778140          0.5283
N191       N    0.0112665624    0.0085678855    0.2590290089         -0.4675
H192       H    0.0425974846    0.0448603646    0.3028527714         -0.4676
H193       H    0.0377697022    0.0417977752    0.3637111849          0.5301
C194       C   -0.0471911490   -0.0513704075    0.3512439792           0.526
H195       H   -0.0310910041   -0.0365030143    0.2921400372          0.5292
C196       C   -0.0533413443   -0.0706908591    0.3864526905         -0.4672
H197       H   -0.0679631424   -0.0541555179    0.4050327874          0.5125
H198       H   -0.0700534602   -0.0937227137    0.3816760783         -0.4652
H199       H   -0.0286945469   -0.0803165886    0.3979317935         -0.4444
H200       H   -0.0728408485   -0.0413502200    0.3425967219          0.5023
H201       H   -0.0412953121   -0.0732366675    0.3332942222         -0.4567
N202       N   -0.0060291657   -0.0134430893    0.2401151881         -0.4663
C203       C   -0.0032720440   -0.0071499203    0.2064174630         -0.4677
C204       C    0.0125418491    0.0208976797    0.1912028137          0.5269
C205       C    0.0144591100    0.0248335415    0.1562799869          0.5263
C206       C   -0.0000000000    0.0000000000    0.1353019574          0.5311
C207       C   -0.0166624033   -0.0274031164    0.1499249484         -0.4645
C208       C   -0.0180792715   -0.0308283633    0.1848067869         -0.4638
C209       C    0.0635723609    0.0660473408    0.1553300159         -0.4638
H210       H    0.0239315333    0.0417527347    0.2072880140          0.5223
H211       H   -0.0315301788   -0.0537538478    0.1957653293         -0.4598
H212       H   -0.0287726774   -0.0477142848    0.1335907403         -0.4607
H213       H    0.0736726844    0.0865770638    0.1377017662          0.5314
H214       H    0.0613319724    0.0768931885    0.1819687609          0.5279
H215       H    0.0816251653    0.0435117914    0.1551129209         -0.4378
O216       O    0.0291146283    0.0552401962    0.1426968605          0.5187
loop_
_geom_bond_atom_site_label_1
_geom_bond_atom_site_label_2
_geom_bond_distance
_geom_bond_site_symmetry_2
_ccdc_geom_bond_type
Zn1          O5 1.942       .   S
Zn1          O6 1.922       .   S
Zn1         O10 1.922       .   S
Zn1         O17 1.922       .   S
Zn2          O5 1.942       .   S
Zn2          O7 1.922       .   S
Zn2          O9 1.922       .   S
Zn2         O13 1.922       .   S
Zn3          O5 1.942       .   S
Zn3          O8 1.922       .   S
Zn3         O11 1.922       .   S
Zn3         O14 1.922       .   S
Zn4          O5 1.942       .   S
Zn4         O12 1.922       .   S
Zn4         O15 1.922       .   S
Zn4         O16 1.922       .   S
O6          C18 1.304       .   A
O7          C19 1.304       .   A
O8          C20 1.304       .   A
O9          C18 1.304       .   A
O10         C20 1.304       .   A
O11         C19 1.304       .   A
O12         C21 1.304       .   A
O13         C22 1.304       .   A
O14         C21 1.304       .   A
O15         C22 1.304       .   A
O16         C23 1.304       .   A
O17         C23 1.304       .   A
C18        C206 1.540       .   S
C19        C270 1.540       .   S
C20        C345 1.540       .   S
C21        C217 1.540       .   S
C22        C313 1.540       .   S
C23        C302 1.540       .   S
Zn24        O28 1.942       .   S
Zn24        O29 1.922       .   S
Zn24        O33 1.922       .   S
Zn24        O40 1.922       .   S
Zn25        O28 1.942       .   S
Zn25        O30 1.922       .   S
Zn25        O32 1.922       .   S
Zn25        O36 1.922       .   S
Zn26        O28 1.942       .   S
Zn26        O31 1.922       .   S
Zn26        O34 1.922       .   S
Zn26        O37 1.922       .   S
Zn27        O28 1.942       .   S
Zn27        O35 1.922       .   S
Zn27        O38 1.922       .   S
Zn27        O39 1.922       .   S
O29         C41 1.304       .   A
O30         C42 1.304       .   A
O31         C43 1.304       .   A
O32         C41 1.304       .   A
O33         C43 1.304       .   A
O34         C42 1.304       .   A
O35         C44 1.304       .   A
O36         C45 1.304       .   A
O37         C44 1.304       .   A
O38         C45 1.304       .   A
O39         C46 1.304       .   A
O40         C46 1.304       .   A
C41        C398 1.540       .   S
C42        C185 1.540   1_655   S
C43        C473 1.540       .   S
C44        C409 1.540       .   S
C45        C441 1.540       .   S
C46        C238 1.540   1_656   S
Zn47        O51 1.942       .   S
Zn47        O52 1.922       .   S
Zn47        O56 1.922       .   S
Zn47        O63 1.922       .   S
Zn48        O51 1.942       .   S
Zn48        O53 1.922       .   S
Zn48        O55 1.922       .   S
Zn48        O59 1.922       .   S
Zn49        O51 1.942       .   S
Zn49        O54 1.922       .   S
Zn49        O57 1.922       .   S
Zn49        O60 1.922       .   S
Zn50        O51 1.942       .   S
Zn50        O58 1.922       .   S
Zn50        O61 1.922       .   S
Zn50        O62 1.922       .   S
O52         C64 1.304       .   A
O53         C65 1.304       .   A
O54         C66 1.304       .   A
O55         C64 1.304       .   A
O56         C66 1.304       .   A
O57         C65 1.304       .   A
O58         C67 1.304       .   A
O59         C68 1.304       .   A
O60         C67 1.304       .   A
O61         C68 1.304       .   A
O62         C69 1.304       .   A
O63         C69 1.304       .   A
C64        C334 1.540   1_655   S
C65        C526 1.540       .   S
C66        C569 1.540       .   S
C67        C366 1.540   1_665   S
C68        C622 1.540       .   S
C69        C558 1.540       .   S
Zn70        O74 1.942       .   S
Zn70        O75 1.922       .   S
Zn70        O79 1.922       .   S
Zn70        O86 1.922       .   S
Zn71        O74 1.942       .   S
Zn71        O76 1.922       .   S
Zn71        O78 1.922       .   S
Zn71        O82 1.922       .   S
Zn72        O74 1.942       .   S
Zn72        O77 1.922       .   S
Zn72        O80 1.922       .   S
Zn72        O83 1.922       .   S
Zn73        O74 1.942       .   S
Zn73        O81 1.922       .   S
Zn73        O84 1.922       .   S
Zn73        O85 1.922       .   S
O75         C87 1.304       .   A
O76         C88 1.304       .   A
O77         C89 1.304       .   A
O78         C87 1.304       .   A
O79         C89 1.304       .   A
O80         C88 1.304       .   A
O81         C90 1.304       .   A
O82         C91 1.304       .   A
O83         C90 1.304       .   A
O84         C91 1.304       .   A
O85         C92 1.304       .   A
O86         C92 1.304       .   A
C87        C462 1.540       .   S
C88        C505 1.540       .   S
C89        C665 1.540       .   S
C90        C494 1.540   1_565   S
C91        C633 1.540       .   S
C92        C537 1.540   1_556   S
Zn93        O97 1.942       .   S
Zn93        O98 1.922       .   S
Zn93       O102 1.922       .   S
Zn93       O109 1.922       .   S
Zn94        O97 1.942       .   S
Zn94        O99 1.922       .   S
Zn94       O101 1.922       .   S
Zn94       O105 1.922       .   S
Zn95        O97 1.942       .   S
Zn95       O100 1.922       .   S
Zn95       O103 1.922       .   S
Zn95       O106 1.922       .   S
Zn96        O97 1.942       .   S
Zn96       O104 1.922       .   S
Zn96       O107 1.922       .   S
Zn96       O108 1.922       .   S
O98        C110 1.304       .   A
O99        C111 1.304       .   A
O100       C112 1.304       .   A
O101       C110 1.304       .   A
O102       C112 1.304       .   A
O103       C111 1.304       .   A
O104       C113 1.304       .   A
O105       C114 1.304       .   A
O106       C113 1.304       .   A
O107       C114 1.304       .   A
O108       C115 1.304       .   A
O109       C115 1.304       .   A
C110       C281 1.540   1_665   S
C111       C782 1.540       .   S
C112       C729 1.540       .   S
C113       C249 1.540   1_565   S
C114       C697 1.540       .   S
C115       C814 1.540       .   S
Zn116      O120 1.942       .   S
Zn116      O121 1.922       .   S
Zn116      O125 1.922       .   S
Zn116      O132 1.922       .   S
Zn117      O120 1.942       .   S
Zn117      O122 1.922       .   S
Zn117      O124 1.922       .   S
Zn117      O128 1.922       .   S
Zn118      O120 1.942       .   S
Zn118      O123 1.922       .   S
Zn118      O126 1.922       .   S
Zn118      O129 1.922       .   S
Zn119      O120 1.942       .   S
Zn119      O127 1.922       .   S
Zn119      O130 1.922       .   S
Zn119      O131 1.922       .   S
O121       C133 1.304       .   A
O122       C134 1.304       .   A
O123       C135 1.304       .   A
O124       C133 1.304       .   A
O125       C135 1.304       .   A
O126       C134 1.304       .   A
O127       C136 1.304       .   A
O128       C137 1.304       .   A
O129       C136 1.304       .   A
O130       C137 1.304       .   A
O131       C138 1.304       .   A
O132       C138 1.304       .   A
C133       C377 1.540   1_465   S
C134       C718 1.540       .   S
C135       C825 1.540       .   S
C136       C430 1.540   1_565   S
C137       C857 1.540       .   S
C138       C750 1.540   1_556   S
Zn139      O143 1.942       .   S
Zn139      O144 1.922       .   S
Zn139      O148 1.922       .   S
Zn139      O155 1.922       .   S
Zn140      O143 1.942       .   S
Zn140      O145 1.922       .   S
Zn140      O147 1.922       .   S
Zn140      O151 1.922       .   S
Zn141      O143 1.942       .   S
Zn141      O146 1.922       .   S
Zn141      O149 1.922       .   S
Zn141      O152 1.922       .   S
Zn142      O143 1.942       .   S
Zn142      O150 1.922       .   S
Zn142      O153 1.922       .   S
Zn142      O154 1.922       .   S
O144       C156 1.304       .   A
O145       C157 1.304       .   A
O146       C158 1.304       .   A
O147       C156 1.304       .   A
O148       C158 1.304       .   A
O149       C157 1.304       .   A
O150       C159 1.304       .   A
O151       C160 1.304       .   A
O152       C159 1.304       .   A
O153       C160 1.304       .   A
O154       C161 1.304       .   A
O155       C161 1.304       .   A
C156       C590 1.540   1_455   S
C157       C761 1.540   1_545   S
C158       C921 1.540       .   S
C159       C601 1.540       .   S
C160       C889 1.540       .   S
C161       C793 1.540       .   S
Zn162      O166 1.942       .   S
Zn162      O167 1.922       .   S
Zn162      O171 1.922       .   S
Zn162      O178 1.922       .   S
Zn163      O166 1.942       .   S
Zn163      O168 1.922       .   S
Zn163      O170 1.922       .   S
Zn163      O174 1.922       .   S
Zn164      O166 1.942       .   S
Zn164      O169 1.922       .   S
Zn164      O172 1.922       .   S
Zn164      O175 1.922       .   S
Zn165      O166 1.942       .   S
Zn165      O173 1.922       .   S
Zn165      O176 1.922       .   S
Zn165      O177 1.922       .   S
O167       C179 1.304       .   A
O168       C180 1.304       .   A
O169       C181 1.304       .   A
O170       C179 1.304       .   A
O171       C181 1.304       .   A
O172       C180 1.304       .   A
O173       C182 1.304       .   A
O174       C183 1.304       .   A
O175       C182 1.304       .   A
O176       C183 1.304       .   A
O177       C184 1.304       .   A
O178       C184 1.304       .   A
C179       C654 1.540   1_455   S
C180       C846 1.540   1_545   S
C181       C910 1.540       .   S
C182       C686 1.540       .   S
C183       C942 1.540   1_556   S
C184       C878 1.540       .   S
C921       C922 0.033       .   A
C921       C926 0.033       .   A
C922       C923 0.032       .   A
C922       H929 0.026       .   A
C923       C924 0.032       .   A
C923       H928 0.026       .   A
C924       C925 0.033       .   A
C924       N927 0.032       .   A
C925       C926 0.032       .   A
C925       H931 0.026       .   A
C926       C930 0.038       .   A
N927       N938 0.031       .   A
C930       C932 0.037       .   A
C930       H936 0.026       .   A
C930       H937 0.026       .   A
C932       H933 0.026       .   A
C932       H934 0.026       .   A
C932       H935 0.026       .   A
N938       C939 0.032       .   A
C939       C940 0.033       .   A
C939       C944 0.032       .   A
C940       C941 0.032       .   A
C940       H946 0.026       .   A
C941       C942 0.033       .   A
C941       O952 0.033       .   A
C942       C943 0.032       .   A
C943       C944 0.032       .   A
C943       H948 0.026       .   A
C944       H947 0.026       .   A
C945       H949 0.026       .   A
C945       H950 0.026       .   A
C945       H951 0.026       .   A
C945       O952 0.035       .   A
C889       C890 0.033       .   A
C889       C894 0.033       .   A
C890       C891 0.032       .   A
C890       H897 0.026       .   A
C891       C892 0.032       .   A
C891       H896 0.026       .   A
C892       C893 0.033       .   A
C892       N895 0.032       .   A
C893       C894 0.032       .   A
C893       H899 0.026       .   A
C894       C898 0.038       .   A
N895       N906 0.031       .   A
C898       C900 0.037       .   A
C898       H904 0.026       .   A
C898       H905 0.026       .   A
C900       H901 0.026       .   A
C900       H902 0.026       .   A
C900       H903 0.026       .   A
N906       C907 0.032       .   A
C907       C908 0.033       .   A
C907       C912 0.032       .   A
C908       C909 0.032       .   A
C908       H914 0.026       .   A
C909       C910 0.033       .   A
C909       O920 0.033       .   A
C910       C911 0.032       .   A
C911       C912 0.032       .   A
C911       H916 0.026       .   A
C912       H915 0.026       .   A
C913       H917 0.026       .   A
C913       H918 0.026       .   A
C913       H919 0.026       .   A
C913       O920 0.035       .   A
C857       C858 0.033       .   A
C857       C862 0.033       .   A
C858       C859 0.032       .   A
C858       H865 0.026       .   A
C859       C860 0.032       .   A
C859       H864 0.026       .   A
C860       C861 0.033       .   A
C860       N863 0.032       .   A
C861       C862 0.032       .   A
C861       H867 0.026       .   A
C862       C866 0.038       .   A
N863       N874 0.031       .   A
C866       C868 0.037       .   A
C866       H872 0.026       .   A
C866       H873 0.026       .   A
C868       H869 0.026       .   A
C868       H870 0.026       .   A
C868       H871 0.026       .   A
N874       C875 0.032       .   A
C875       C876 0.033       .   A
C875       C880 0.032       .   A
C876       C877 0.032       .   A
C876       H882 0.026       .   A
C877       C878 0.033       .   A
C877       O888 0.033       .   A
C878       C879 0.032       .   A
C879       C880 0.032       .   A
C879       H884 0.026       .   A
C880       H883 0.026       .   A
C881       H885 0.026       .   A
C881       H886 0.026       .   A
C881       H887 0.026       .   A
C881       O888 0.035       .   A
C825       C826 0.033       .   A
C825       C830 0.033       .   A
C826       C827 0.032       .   A
C826       H833 0.026       .   A
C827       C828 0.032       .   A
C827       H832 0.026       .   A
C828       C829 0.033       .   A
C828       N831 0.032       .   A
C829       C830 0.032       .   A
C829       H835 0.026       .   A
C830       C834 0.038       .   A
N831       N842 0.031       .   A
C834       C836 0.037       .   A
C834       H840 0.026       .   A
C834       H841 0.026       .   A
C836       H837 0.026       .   A
C836       H838 0.026       .   A
C836       H839 0.026       .   A
N842       C843 0.032       .   A
C843       C844 0.033       .   A
C843       C848 0.032       .   A
C844       C845 0.032       .   A
C844       H850 0.026       .   A
C845       C846 0.033       .   A
C845       O856 0.033       .   A
C846       C847 0.032       .   A
C847       C848 0.032       .   A
C847       H852 0.026       .   A
C848       H851 0.026       .   A
C849       H853 0.026       .   A
C849       H854 0.026       .   A
C849       H855 0.026       .   A
C849       O856 0.035       .   A
C793       C794 0.033       .   A
C793       C798 0.033       .   A
C794       C795 0.032       .   A
C794       H801 0.026       .   A
C795       C796 0.032       .   A
C795       H800 0.026       .   A
C796       C797 0.033       .   A
C796       N799 0.032       .   A
C797       C798 0.032       .   A
C797       H803 0.026       .   A
C798       C802 0.038       .   A
N799       N810 0.031       .   A
C802       C804 0.037       .   A
C802       H808 0.026       .   A
C802       H809 0.026       .   A
C804       H805 0.026       .   A
C804       H806 0.026       .   A
C804       H807 0.026       .   A
N810       C811 0.032       .   A
C811       C812 0.033       .   A
C811       C816 0.032       .   A
C812       C813 0.032       .   A
C812       H818 0.026       .   A
C813       C814 0.033       .   A
C813       O824 0.033       .   A
C814       C815 0.032       .   A
C815       C816 0.032       .   A
C815       H820 0.026       .   A
C816       H819 0.026       .   A
C817       H821 0.026       .   A
C817       H822 0.026       .   A
C817       H823 0.026       .   A
C817       O824 0.035       .   A
C761       C762 0.033       .   A
C761       C766 0.033       .   A
C762       C763 0.032       .   A
C762       H769 0.026       .   A
C763       C764 0.032       .   A
C763       H768 0.026       .   A
C764       C765 0.033       .   A
C764       N767 0.032       .   A
C765       C766 0.032       .   A
C765       H771 0.026       .   A
C766       C770 0.038       .   A
N767       N778 0.031       .   A
C770       C772 0.037       .   A
C770       H776 0.026       .   A
C770       H777 0.026       .   A
C772       H773 0.026       .   A
C772       H774 0.026       .   A
C772       H775 0.026       .   A
N778       C779 0.032       .   A
C779       C780 0.033       .   A
C779       C784 0.032       .   A
C780       C781 0.032       .   A
C780       H786 0.026       .   A
C781       C782 0.033       .   A
C781       O792 0.033       .   A
C782       C783 0.032       .   A
C783       C784 0.032       .   A
C783       H788 0.026       .   A
C784       H787 0.026       .   A
C785       H789 0.026       .   A
C785       H790 0.026       .   A
C785       H791 0.026       .   A
C785       O792 0.035       .   A
C729       C730 0.033       .   A
C729       C734 0.033       .   A
C730       C731 0.032       .   A
C730       H737 0.026       .   A
C731       C732 0.032       .   A
C731       H736 0.026       .   A
C732       C733 0.033       .   A
C732       N735 0.032       .   A
C733       C734 0.032       .   A
C733       H739 0.026       .   A
C734       C738 0.038       .   A
N735       N746 0.031       .   A
C738       C740 0.037       .   A
C738       H744 0.026       .   A
C738       H745 0.026       .   A
C740       H741 0.026       .   A
C740       H742 0.026       .   A
C740       H743 0.026       .   A
N746       C747 0.032       .   A
C747       C748 0.033       .   A
C747       C752 0.032       .   A
C748       C749 0.032       .   A
C748       H754 0.026       .   A
C749       C750 0.033       .   A
C749       O760 0.033       .   A
C750       C751 0.032       .   A
C751       C752 0.032       .   A
C751       H756 0.026       .   A
C752       H755 0.026       .   A
C753       H757 0.026       .   A
C753       H758 0.026       .   A
C753       H759 0.026       .   A
C753       O760 0.035       .   A
C697       C698 0.033       .   A
C697       C702 0.033       .   A
C698       C699 0.032       .   A
C698       H705 0.026       .   A
C699       C700 0.032       .   A
C699       H704 0.026       .   A
C700       C701 0.033       .   A
C700       N703 0.032       .   A
C701       C702 0.032       .   A
C701       H707 0.026       .   A
C702       C706 0.038       .   A
N703       N714 0.031       .   A
C706       C708 0.037       .   A
C706       H712 0.026       .   A
C706       H713 0.026       .   A
C708       H709 0.026       .   A
C708       H710 0.026       .   A
C708       H711 0.026       .   A
N714       C715 0.032       .   A
C715       C716 0.033       .   A
C715       C720 0.032       .   A
C716       C717 0.032       .   A
C716       H722 0.026       .   A
C717       C718 0.033       .   A
C717       O728 0.033       .   A
C718       C719 0.032       .   A
C719       C720 0.032       .   A
C719       H724 0.026       .   A
C720       H723 0.026       .   A
C721       H725 0.026       .   A
C721       H726 0.026       .   A
C721       H727 0.026       .   A
C721       O728 0.035       .   A
C665       C666 0.033       .   A
C665       C670 0.033       .   A
C666       C667 0.032       .   A
C666       H673 0.026       .   A
C667       C668 0.032       .   A
C667       H672 0.026       .   A
C668       C669 0.033       .   A
C668       N671 0.032       .   A
C669       C670 0.032       .   A
C669       H675 0.026       .   A
C670       C674 0.038       .   A
N671       N682 0.031       .   A
C674       C676 0.037       .   A
C674       H680 0.026       .   A
C674       H681 0.026       .   A
C676       H677 0.026       .   A
C676       H678 0.026       .   A
C676       H679 0.026       .   A
N682       C683 0.032       .   A
C683       C684 0.033       .   A
C683       C688 0.032       .   A
C684       C685 0.032       .   A
C684       H690 0.026       .   A
C685       C686 0.033       .   A
C685       O696 0.033       .   A
C686       C687 0.032       .   A
C687       C688 0.032       .   A
C687       H692 0.026       .   A
C688       H691 0.026       .   A
C689       H693 0.026       .   A
C689       H694 0.026       .   A
C689       H695 0.026       .   A
C689       O696 0.035       .   A
C633       C634 0.033       .   A
C633       C638 0.033       .   A
C634       C635 0.032       .   A
C634       H641 0.026       .   A
C635       C636 0.032       .   A
C635       H640 0.026       .   A
C636       C637 0.033       .   A
C636       N639 0.032       .   A
C637       C638 0.032       .   A
C637       H643 0.026       .   A
C638       C642 0.038       .   A
N639       N650 0.031       .   A
C642       C644 0.037       .   A
C642       H648 0.026       .   A
C642       H649 0.026       .   A
C644       H645 0.026       .   A
C644       H646 0.026       .   A
C644       H647 0.026       .   A
N650       C651 0.032       .   A
C651       C652 0.033       .   A
C651       C656 0.032       .   A
C652       C653 0.032       .   A
C652       H658 0.026       .   A
C653       C654 0.033       .   A
C653       O664 0.033       .   A
C654       C655 0.032       .   A
C655       C656 0.032       .   A
C655       H660 0.026       .   A
C656       H659 0.026       .   A
C657       H661 0.026       .   A
C657       H662 0.026       .   A
C657       H663 0.026       .   A
C657       O664 0.035       .   A
C601       C602 0.033       .   A
C601       C606 0.033       .   A
C602       C603 0.032       .   A
C602       H609 0.026       .   A
C603       C604 0.032       .   A
C603       H608 0.026       .   A
C604       C605 0.033       .   A
C604       N607 0.032       .   A
C605       C606 0.032       .   A
C605       H611 0.026       .   A
C606       C610 0.038       .   A
N607       N618 0.031       .   A
C610       C612 0.037       .   A
C610       H616 0.026       .   A
C610       H617 0.026       .   A
C612       H613 0.026       .   A
C612       H614 0.026       .   A
C612       H615 0.026       .   A
N618       C619 0.032       .   A
C619       C620 0.033       .   A
C619       C624 0.032       .   A
C620       C621 0.032       .   A
C620       H626 0.026       .   A
C621       C622 0.033       .   A
C621       O632 0.033       .   A
C622       C623 0.032       .   A
C623       C624 0.032       .   A
C623       H628 0.026       .   A
C624       H627 0.026       .   A
C625       H629 0.026       .   A
C625       H630 0.026       .   A
C625       H631 0.026       .   A
C625       O632 0.035       .   A
C569       C570 0.033       .   A
C569       C574 0.033       .   A
C570       C571 0.032       .   A
C570       H577 0.026       .   A
C571       C572 0.032       .   A
C571       H576 0.026       .   A
C572       C573 0.033       .   A
C572       N575 0.032       .   A
C573       C574 0.032       .   A
C573       H579 0.026       .   A
C574       C578 0.038       .   A
N575       N586 0.031       .   A
C578       C580 0.037       .   A
C578       H584 0.026       .   A
C578       H585 0.026       .   A
C580       H581 0.026       .   A
C580       H582 0.026       .   A
C580       H583 0.026       .   A
N586       C587 0.032       .   A
C587       C588 0.033       .   A
C587       C592 0.032       .   A
C588       C589 0.032       .   A
C588       H594 0.026       .   A
C589       C590 0.033       .   A
C589       O600 0.033       .   A
C590       C591 0.032       .   A
C591       C592 0.032       .   A
C591       H596 0.026       .   A
C592       H595 0.026       .   A
C593       H597 0.026       .   A
C593       H598 0.026       .   A
C593       H599 0.026       .   A
C593       O600 0.035       .   A
C537       C538 0.033       .   A
C537       C542 0.033       .   A
C538       C539 0.032       .   A
C538       H545 0.026       .   A
C539       C540 0.032       .   A
C539       H544 0.026       .   A
C540       C541 0.033       .   A
C540       N543 0.032       .   A
C541       C542 0.032       .   A
C541       H547 0.026       .   A
C542       C546 0.038       .   A
N543       N554 0.031       .   A
C546       C548 0.037       .   A
C546       H552 0.026       .   A
C546       H553 0.026       .   A
C548       H549 0.026       .   A
C548       H550 0.026       .   A
C548       H551 0.026       .   A
N554       C555 0.032       .   A
C555       C556 0.033       .   A
C555       C560 0.032       .   A
C556       C557 0.032       .   A
C556       H562 0.026       .   A
C557       C558 0.033       .   A
C557       O568 0.033       .   A
C558       C559 0.032       .   A
C559       C560 0.032       .   A
C559       H564 0.026       .   A
C560       H563 0.026       .   A
C561       H565 0.026       .   A
C561       H566 0.026       .   A
C561       H567 0.026       .   A
C561       O568 0.035       .   A
C505       C506 0.033       .   A
C505       C510 0.033       .   A
C506       C507 0.032       .   A
C506       H513 0.026       .   A
C507       C508 0.032       .   A
C507       H512 0.026       .   A
C508       C509 0.033       .   A
C508       N511 0.032       .   A
C509       C510 0.032       .   A
C509       H515 0.026       .   A
C510       C514 0.038       .   A
N511       N522 0.031       .   A
C514       C516 0.037       .   A
C514       H520 0.026       .   A
C514       H521 0.026       .   A
C516       H517 0.026       .   A
C516       H518 0.026       .   A
C516       H519 0.026       .   A
N522       C523 0.032       .   A
C523       C524 0.033       .   A
C523       C528 0.032       .   A
C524       C525 0.032       .   A
C524       H530 0.026       .   A
C525       C526 0.033       .   A
C525       O536 0.033       .   A
C526       C527 0.032       .   A
C527       C528 0.032       .   A
C527       H532 0.026       .   A
C528       H531 0.026       .   A
C529       H533 0.026       .   A
C529       H534 0.026       .   A
C529       H535 0.026       .   A
C529       O536 0.035       .   A
C473       C474 0.033       .   A
C473       C478 0.033       .   A
C474       C475 0.032       .   A
C474       H481 0.026       .   A
C475       C476 0.032       .   A
C475       H480 0.026       .   A
C476       C477 0.033       .   A
C476       N479 0.032       .   A
C477       C478 0.032       .   A
C477       H483 0.026       .   A
C478       C482 0.038       .   A
N479       N490 0.031       .   A
C482       C484 0.037       .   A
C482       H488 0.026       .   A
C482       H489 0.026       .   A
C484       H485 0.026       .   A
C484       H486 0.026       .   A
C484       H487 0.026       .   A
N490       C491 0.032       .   A
C491       C492 0.033       .   A
C491       C496 0.032       .   A
C492       C493 0.032       .   A
C492       H498 0.026       .   A
C493       C494 0.033       .   A
C493       O504 0.033       .   A
C494       C495 0.032       .   A
C495       C496 0.032       .   A
C495       H500 0.026       .   A
C496       H499 0.026       .   A
C497       H501 0.026       .   A
C497       H502 0.026       .   A
C497       H503 0.026       .   A
C497       O504 0.035       .   A
C441       C442 0.033       .   A
C441       C446 0.033       .   A
C442       C443 0.032       .   A
C442       H449 0.026       .   A
C443       C444 0.032       .   A
C443       H448 0.026       .   A
C444       C445 0.033       .   A
C444       N447 0.032       .   A
C445       C446 0.032       .   A
C445       H451 0.026       .   A
C446       C450 0.038       .   A
N447       N458 0.031       .   A
C450       C452 0.037       .   A
C450       H456 0.026       .   A
C450       H457 0.026       .   A
C452       H453 0.026       .   A
C452       H454 0.026       .   A
C452       H455 0.026       .   A
N458       C459 0.032       .   A
C459       C460 0.033       .   A
C459       C464 0.032       .   A
C460       C461 0.032       .   A
C460       H466 0.026       .   A
C461       C462 0.033       .   A
C461       O472 0.033       .   A
C462       C463 0.032       .   A
C463       C464 0.032       .   A
C463       H468 0.026       .   A
C464       H467 0.026       .   A
C465       H469 0.026       .   A
C465       H470 0.026       .   A
C465       H471 0.026       .   A
C465       O472 0.035       .   A
C409       C410 0.033       .   A
C409       C414 0.033       .   A
C410       C411 0.032       .   A
C410       H417 0.026       .   A
C411       C412 0.032       .   A
C411       H416 0.026       .   A
C412       C413 0.033       .   A
C412       N415 0.032       .   A
C413       C414 0.032       .   A
C413       H419 0.026       .   A
C414       C418 0.038       .   A
N415       N426 0.031       .   A
C418       C420 0.037       .   A
C418       H424 0.026       .   A
C418       H425 0.026       .   A
C420       H421 0.026       .   A
C420       H422 0.026       .   A
C420       H423 0.026       .   A
N426       C427 0.032       .   A
C427       C428 0.033       .   A
C427       C432 0.032       .   A
C428       C429 0.032       .   A
C428       H434 0.026       .   A
C429       C430 0.033       .   A
C429       O440 0.033       .   A
C430       C431 0.032       .   A
C431       C432 0.032       .   A
C431       H436 0.026       .   A
C432       H435 0.026       .   A
C433       H437 0.026       .   A
C433       H438 0.026       .   A
C433       H439 0.026       .   A
C433       O440 0.035       .   A
C377       C378 0.033       .   A
C377       C382 0.033       .   A
C378       C379 0.032       .   A
C378       H385 0.026       .   A
C379       C380 0.032       .   A
C379       H384 0.026       .   A
C380       C381 0.033       .   A
C380       N383 0.032       .   A
C381       C382 0.032       .   A
C381       H387 0.026       .   A
C382       C386 0.038       .   A
N383       N394 0.031       .   A
C386       C388 0.037       .   A
C386       H392 0.026       .   A
C386       H393 0.026       .   A
C388       H389 0.026       .   A
C388       H390 0.026       .   A
C388       H391 0.026       .   A
N394       C395 0.032       .   A
C395       C396 0.033       .   A
C395       C400 0.032       .   A
C396       C397 0.032       .   A
C396       H402 0.026       .   A
C397       C398 0.033       .   A
C397       O408 0.033       .   A
C398       C399 0.032       .   A
C399       C400 0.032       .   A
C399       H404 0.026       .   A
C400       H403 0.026       .   A
C401       H405 0.026       .   A
C401       H406 0.026       .   A
C401       H407 0.026       .   A
C401       O408 0.035       .   A
C345       C346 0.033       .   A
C345       C350 0.033       .   A
C346       C347 0.032       .   A
C346       H353 0.026       .   A
C347       C348 0.032       .   A
C347       H352 0.026       .   A
C348       C349 0.033       .   A
C348       N351 0.032       .   A
C349       C350 0.032       .   A
C349       H355 0.026       .   A
C350       C354 0.038       .   A
N351       N362 0.031       .   A
C354       C356 0.037       .   A
C354       H360 0.026       .   A
C354       H361 0.026       .   A
C356       H357 0.026       .   A
C356       H358 0.026       .   A
C356       H359 0.026       .   A
N362       C363 0.032       .   A
C363       C364 0.033       .   A
C363       C368 0.032       .   A
C364       C365 0.032       .   A
C364       H370 0.026       .   A
C365       C366 0.033       .   A
C365       O376 0.033       .   A
C366       C367 0.032       .   A
C367       C368 0.032       .   A
C367       H372 0.026       .   A
C368       H371 0.026       .   A
C369       H373 0.026       .   A
C369       H374 0.026       .   A
C369       H375 0.026       .   A
C369       O376 0.035       .   A
C313       C314 0.033       .   A
C313       C318 0.033       .   A
C314       C315 0.032       .   A
C314       H321 0.026       .   A
C315       C316 0.032       .   A
C315       H320 0.026       .   A
C316       C317 0.033       .   A
C316       N319 0.032       .   A
C317       C318 0.032       .   A
C317       H323 0.026       .   A
C318       C322 0.038       .   A
N319       N330 0.031       .   A
C322       C324 0.037       .   A
C322       H328 0.026       .   A
C322       H329 0.026       .   A
C324       H325 0.026       .   A
C324       H326 0.026       .   A
C324       H327 0.026       .   A
N330       C331 0.032       .   A
C331       C332 0.033       .   A
C331       C336 0.032       .   A
C332       C333 0.032       .   A
C332       H338 0.026       .   A
C333       C334 0.033       .   A
C333       O344 0.033       .   A
C334       C335 0.032       .   A
C335       C336 0.032       .   A
C335       H340 0.026       .   A
C336       H339 0.026       .   A
C337       H341 0.026       .   A
C337       H342 0.026       .   A
C337       H343 0.026       .   A
C337       O344 0.035       .   A
C281       C282 0.033       .   A
C281       C286 0.033       .   A
C282       C283 0.032       .   A
C282       H289 0.026       .   A
C283       C284 0.032       .   A
C283       H288 0.026       .   A
C284       C285 0.033       .   A
C284       N287 0.032       .   A
C285       C286 0.032       .   A
C285       H291 0.026       .   A
C286       C290 0.038       .   A
N287       N298 0.031       .   A
C290       C292 0.037       .   A
C290       H296 0.026       .   A
C290       H297 0.026       .   A
C292       H293 0.026       .   A
C292       H294 0.026       .   A
C292       H295 0.026       .   A
N298       C299 0.032       .   A
C299       C300 0.033       .   A
C299       C304 0.032       .   A
C300       C301 0.032       .   A
C300       H306 0.026       .   A
C301       C302 0.033       .   A
C301       O312 0.033       .   A
C302       C303 0.032       .   A
C303       C304 0.032       .   A
C303       H308 0.026       .   A
C304       H307 0.026       .   A
C305       H309 0.026       .   A
C305       H310 0.026       .   A
C305       H311 0.026       .   A
C305       O312 0.035       .   A
C249       C250 0.033       .   A
C249       C254 0.033       .   A
C250       C251 0.032       .   A
C250       H257 0.026       .   A
C251       C252 0.032       .   A
C251       H256 0.026       .   A
C252       C253 0.033       .   A
C252       N255 0.032       .   A
C253       C254 0.032       .   A
C253       H259 0.026       .   A
C254       C258 0.038       .   A
N255       N266 0.031       .   A
C258       C260 0.037       .   A
C258       H264 0.026       .   A
C258       H265 0.026       .   A
C260       H261 0.026       .   A
C260       H262 0.026       .   A
C260       H263 0.026       .   A
N266       C267 0.032       .   A
C267       C268 0.033       .   A
C267       C272 0.032       .   A
C268       C269 0.032       .   A
C268       H274 0.026       .   A
C269       C270 0.033       .   A
C269       O280 0.033       .   A
C270       C271 0.032       .   A
C271       C272 0.032       .   A
C271       H276 0.026       .   A
C272       H275 0.026       .   A
C273       H277 0.026       .   A
C273       H278 0.026       .   A
C273       H279 0.026       .   A
C273       O280 0.035       .   A
C217       C218 0.033       .   A
C217       C222 0.033       .   A
C218       C219 0.032       .   A
C218       H225 0.026       .   A
C219       C220 0.032       .   A
C219       H224 0.026       .   A
C220       C221 0.033       .   A
C220       N223 0.032       .   A
C221       C222 0.032       .   A
C221       H227 0.026       .   A
C222       C226 0.038       .   A
N223       N234 0.031       .   A
C226       C228 0.037       .   A
C226       H232 0.026       .   A
C226       H233 0.026       .   A
C228       H229 0.026       .   A
C228       H230 0.026       .   A
C228       H231 0.026       .   A
N234       C235 0.032       .   A
C235       C236 0.033       .   A
C235       C240 0.032       .   A
C236       C237 0.032       .   A
C236       H242 0.026       .   A
C237       C238 0.033       .   A
C237       O248 0.033       .   A
C238       C239 0.032       .   A
C239       C240 0.032       .   A
C239       H244 0.026       .   A
C240       H243 0.026       .   A
C241       H245 0.026       .   A
C241       H246 0.026       .   A
C241       H247 0.026       .   A
C241       O248 0.035       .   A
C185       C186 0.033       .   A
C185       C190 0.033       .   A
C186       C187 0.032       .   A
C186       H193 0.026       .   A
C187       C188 0.032       .   A
C187       H192 0.026       .   A
C188       C189 0.033       .   A
C188       N191 0.032       .   A
C189       C190 0.032       .   A
C189       H195 0.026       .   A
C190       C194 0.038       .   A
N191       N202 0.031       .   A
C194       C196 0.037       .   A
C194       H200 0.026       .   A
C194       H201 0.026       .   A
C196       H197 0.026       .   A
C196       H198 0.026       .   A
C196       H199 0.026       .   A
N202       C203 0.032       .   A
C203       C204 0.033       .   A
C203       C208 0.032       .   A
C204       C205 0.032       .   A
C204       H210 0.026       .   A
C205       C206 0.033       .   A
C205       O216 0.033       .   A
C206       C207 0.032       .   A
C207       C208 0.032       .   A
C207       H212 0.026       .   A
C208       H211 0.026       .   A
C209       H213 0.026       .   A
C209       H214 0.026       .   A
C209       H215 0.026       .   A
C209       O216 0.035       .   A
