data_pcu_v1-6c_Zn_1_Ch_1-65_fer_tobacco
_audit_creation_date              2021-04-07
_audit_creation_method            'tobacco_3.0'
_symmetry_space_group_name_H-M    'P1'
_symmetry_Int_Tables_number       1
_symmetry_cell_setting            triclinic
loop_
_symmetry_equiv_pos_as_xyz
  x,y,z
_cell_length_a                    43.76028386933386
_cell_length_b                    43.76028386933386
_cell_length_c                    43.76028386933386
_cell_angle_alpha                 90.0
_cell_angle_beta                  90.0
_cell_angle_gamma                 90.0
loop_
_atom_site_label
_atom_site_type_symbol
_atom_site_fract_x
_atom_site_fract_y
_atom_site_fract_z
_atom_site_charge
Zn1       Zn    0.0256214060   -0.0256214060   -0.0256214060          1.4972
Zn2       Zn   -0.0256214060    0.0256214060   -0.0256214060          1.4936
Zn3       Zn   -0.0256214060   -0.0256214060    0.0256214060          1.4911
Zn4       Zn    0.0256214060    0.0256214060    0.0256214060          1.4948
O5         O    0.0000000000    0.0000000000    0.0000000000         -2.3589
O6         O    0.0188298596   -0.0188298596   -0.0684776179         -1.2652
O7         O   -0.0684776179    0.0188298596   -0.0188298596         -1.2634
O8         O   -0.0188298596   -0.0684776179    0.0188298596         -1.2586
O9         O   -0.0188298596    0.0188298596   -0.0684776179         -1.2653
O10        O    0.0188298596   -0.0684776179   -0.0188298596         -1.2613
O11        O   -0.0684776179   -0.0188298596    0.0188298596         -1.2672
O12        O    0.0188298596    0.0188298596    0.0684776179         -1.2611
O13        O   -0.0188298596    0.0684776179   -0.0188298596         -1.2686
O14        O   -0.0188298596   -0.0188298596    0.0684776179         -1.2625
O15        O    0.0188298596    0.0684776179    0.0188298596         -1.2672
O16        O    0.0684776179    0.0188298596    0.0188298596         -1.2663
O17        O    0.0684776179   -0.0188298596   -0.0188298596         -1.2642
C18        C    0.0000000000   -0.0000000000   -0.0818733263          0.2537
C19        C   -0.0818733263    0.0000000000    0.0000000000          0.2586
C20        C    0.0000000000   -0.0818733263    0.0000000000          0.2482
C21        C   -0.0000000000    0.0000000000    0.0818733263           0.252
C22        C   -0.0000000000    0.0818733263   -0.0000000000          0.2633
C23        C    0.0818733263   -0.0000000000   -0.0000000000          0.2538
Zn24      Zn    0.9743785940    0.0256214060    0.4743785940          1.4972
Zn25      Zn    1.0256214060   -0.0256214060    0.4743785940          1.4936
Zn26      Zn    1.0256214060    0.0256214060    0.5256214060          1.4911
Zn27      Zn    0.9743785940   -0.0256214060    0.5256214060          1.4948
O28        O    1.0000000000    0.0000000000    0.5000000000         -2.3589
O29        O    0.9811701404    0.0188298596    0.4315223821         -1.2652
O30        O    1.0684776179   -0.0188298596    0.4811701404         -1.2634
O31        O    1.0188298596    0.0684776179    0.5188298596         -1.2586
O32        O    1.0188298596   -0.0188298596    0.4315223821         -1.2653
O33        O    0.9811701404    0.0684776179    0.4811701404         -1.2613
O34        O    1.0684776179    0.0188298596    0.5188298596         -1.2672
O35        O    0.9811701404   -0.0188298596    0.5684776179         -1.2611
O36        O    1.0188298596   -0.0684776179    0.4811701404         -1.2686
O37        O    1.0188298596    0.0188298596    0.5684776179         -1.2625
O38        O    0.9811701404   -0.0684776179    0.5188298596         -1.2672
O39        O    0.9315223821   -0.0188298596    0.5188298596         -1.2663
O40        O    0.9315223821    0.0188298596    0.4811701404         -1.2642
C41        C    1.0000000000    0.0000000000    0.4181266737          0.2537
C42        C    1.0818733263    0.0000000000    0.5000000000          0.2586
C43        C    1.0000000000    0.0818733263    0.5000000000          0.2482
C44        C    1.0000000000    0.0000000000    0.5818733263           0.252
C45        C    1.0000000000   -0.0818733263    0.5000000000          0.2633
C46        C    0.9181266737    0.0000000000    0.5000000000          0.2538
Zn47      Zn    1.0256214060    0.5256214060    0.0256214060          1.4972
Zn48      Zn    0.9743785940    0.4743785940    0.0256214060          1.4936
Zn49      Zn    0.9743785940    0.5256214060   -0.0256214060          1.4911
Zn50      Zn    1.0256214060    0.4743785940   -0.0256214060          1.4948
O51        O    1.0000000000    0.5000000000    0.0000000000         -2.3589
O52        O    1.0188298596    0.5188298596    0.0684776179         -1.2652
O53        O    0.9315223821    0.4811701404    0.0188298596         -1.2634
O54        O    0.9811701404    0.5684776179   -0.0188298596         -1.2586
O55        O    0.9811701404    0.4811701404    0.0684776179         -1.2653
O56        O    1.0188298596    0.5684776179    0.0188298596         -1.2613
O57        O    0.9315223821    0.5188298596   -0.0188298596         -1.2672
O58        O    1.0188298596    0.4811701404   -0.0684776179         -1.2611
O59        O    0.9811701404    0.4315223821    0.0188298596         -1.2686
O60        O    0.9811701404    0.5188298596   -0.0684776179         -1.2625
O61        O    1.0188298596    0.4315223821   -0.0188298596         -1.2672
O62        O    1.0684776179    0.4811701404   -0.0188298596         -1.2663
O63        O    1.0684776179    0.5188298596    0.0188298596         -1.2642
C64        C    1.0000000000    0.5000000000    0.0818733263          0.2537
C65        C    0.9181266737    0.5000000000    0.0000000000          0.2586
C66        C    1.0000000000    0.5818733263    0.0000000000          0.2482
C67        C    1.0000000000    0.5000000000   -0.0818733263           0.252
C68        C    1.0000000000    0.4181266737    0.0000000000          0.2633
C69        C    1.0818733263    0.5000000000    0.0000000000          0.2538
Zn70      Zn    0.9743785940    0.4743785940    0.4743785940          1.4972
Zn71      Zn    1.0256214060    0.4743785940    0.5256214060          1.4936
Zn72      Zn    1.0256214060    0.5256214060    0.4743785940          1.4911
Zn73      Zn    0.9743785940    0.5256214060    0.5256214060          1.4948
O74        O    1.0000000000    0.5000000000    0.5000000000         -2.3589
O75        O    0.9811701404    0.4315223821    0.4811701404         -1.2652
O76        O    1.0684776179    0.4811701404    0.5188298596         -1.2634
O77        O    1.0188298596    0.5188298596    0.4315223821         -1.2586
O78        O    1.0188298596    0.4315223821    0.5188298596         -1.2653
O79        O    0.9811701404    0.4811701404    0.4315223821         -1.2613
O80        O    1.0684776179    0.5188298596    0.4811701404         -1.2672
O81        O    0.9811701404    0.5684776179    0.5188298596         -1.2611
O82        O    1.0188298596    0.4811701404    0.5684776179         -1.2686
O83        O    1.0188298596    0.5684776179    0.4811701404         -1.2625
O84        O    0.9811701404    0.5188298596    0.5684776179         -1.2672
O85        O    0.9315223821    0.5188298596    0.5188298596         -1.2663
O86        O    0.9315223821    0.4811701404    0.4811701404         -1.2642
C87        C    1.0000000000    0.4181266737    0.5000000000          0.2537
C88        C    1.0818733263    0.5000000000    0.5000000000          0.2586
C89        C    1.0000000000    0.5000000000    0.4181266737          0.2482
C90        C    1.0000000000    0.5818733263    0.5000000000           0.252
C91        C    1.0000000000    0.5000000000    0.5818733263          0.2633
C92        C    0.9181266737    0.5000000000    0.5000000000          0.2538
Zn93      Zn    0.4743785940    0.9743785940    0.0256214060          1.4972
Zn94      Zn    0.4743785940    1.0256214060   -0.0256214060          1.4936
Zn95      Zn    0.5256214060    1.0256214060    0.0256214060          1.4911
Zn96      Zn    0.5256214060    0.9743785940   -0.0256214060          1.4948
O97        O    0.5000000000    1.0000000000    0.0000000000         -2.3589
O98        O    0.4315223821    0.9811701404    0.0188298596         -1.2652
O99        O    0.4811701404    1.0684776179   -0.0188298596         -1.2634
O100       O    0.5188298596    1.0188298596    0.0684776179         -1.2586
O101       O    0.4315223821    1.0188298596   -0.0188298596         -1.2653
O102       O    0.4811701404    0.9811701404    0.0684776179         -1.2613
O103       O    0.5188298596    1.0684776179    0.0188298596         -1.2672
O104       O    0.5684776179    0.9811701404   -0.0188298596         -1.2611
O105       O    0.4811701404    1.0188298596   -0.0684776179         -1.2686
O106       O    0.5684776179    1.0188298596    0.0188298596         -1.2625
O107       O    0.5188298596    0.9811701404   -0.0684776179         -1.2672
O108       O    0.5188298596    0.9315223821   -0.0188298596         -1.2663
O109       O    0.4811701404    0.9315223821    0.0188298596         -1.2642
C110       C    0.4181266737    1.0000000000    0.0000000000          0.2537
C111       C    0.5000000000    1.0818733263    0.0000000000          0.2586
C112       C    0.5000000000    1.0000000000    0.0818733263          0.2482
C113       C    0.5818733263    1.0000000000    0.0000000000           0.252
C114       C    0.5000000000    1.0000000000   -0.0818733263          0.2633
C115       C    0.5000000000    0.9181266737    0.0000000000          0.2538
Zn116     Zn    0.4743785940    0.9743785940    0.5256214060          1.4972
Zn117     Zn    0.4743785940    1.0256214060    0.4743785940          1.4936
Zn118     Zn    0.5256214060    1.0256214060    0.5256214060          1.4911
Zn119     Zn    0.5256214060    0.9743785940    0.4743785940          1.4948
O120       O    0.5000000000    1.0000000000    0.5000000000         -2.3589
O121       O    0.4315223821    0.9811701404    0.5188298596         -1.2652
O122       O    0.4811701404    1.0684776179    0.4811701404         -1.2634
O123       O    0.5188298596    1.0188298596    0.5684776179         -1.2586
O124       O    0.4315223821    1.0188298596    0.4811701404         -1.2653
O125       O    0.4811701404    0.9811701404    0.5684776179         -1.2613
O126       O    0.5188298596    1.0684776179    0.5188298596         -1.2672
O127       O    0.5684776179    0.9811701404    0.4811701404         -1.2611
O128       O    0.4811701404    1.0188298596    0.4315223821         -1.2686
O129       O    0.5684776179    1.0188298596    0.5188298596         -1.2625
O130       O    0.5188298596    0.9811701404    0.4315223821         -1.2672
O131       O    0.5188298596    0.9315223821    0.4811701404         -1.2663
O132       O    0.4811701404    0.9315223821    0.5188298596         -1.2642
C133       C    0.4181266737    1.0000000000    0.5000000000          0.2537
C134       C    0.5000000000    1.0818733263    0.5000000000          0.2586
C135       C    0.5000000000    1.0000000000    0.5818733263          0.2482
C136       C    0.5818733263    1.0000000000    0.5000000000           0.252
C137       C    0.5000000000    1.0000000000    0.4181266737          0.2633
C138       C    0.5000000000    0.9181266737    0.5000000000          0.2538
Zn139     Zn    0.4743785940    0.5256214060   -0.0256214060          1.4972
Zn140     Zn    0.4743785940    0.4743785940    0.0256214060          1.4936
Zn141     Zn    0.5256214060    0.4743785940   -0.0256214060          1.4911
Zn142     Zn    0.5256214060    0.5256214060    0.0256214060          1.4948
O143       O    0.5000000000    0.5000000000    0.0000000000         -2.3589
O144       O    0.4315223821    0.5188298596   -0.0188298596         -1.2652
O145       O    0.4811701404    0.4315223821    0.0188298596         -1.2634
O146       O    0.5188298596    0.4811701404   -0.0684776179         -1.2586
O147       O    0.4315223821    0.4811701404    0.0188298596         -1.2653
O148       O    0.4811701404    0.5188298596   -0.0684776179         -1.2613
O149       O    0.5188298596    0.4315223821   -0.0188298596         -1.2672
O150       O    0.5684776179    0.5188298596    0.0188298596         -1.2611
O151       O    0.4811701404    0.4811701404    0.0684776179         -1.2686
O152       O    0.5684776179    0.4811701404   -0.0188298596         -1.2625
O153       O    0.5188298596    0.5188298596    0.0684776179         -1.2672
O154       O    0.5188298596    0.5684776179    0.0188298596         -1.2663
O155       O    0.4811701404    0.5684776179   -0.0188298596         -1.2642
C156       C    0.4181266737    0.5000000000    0.0000000000          0.2537
C157       C    0.5000000000    0.4181266737    0.0000000000          0.2586
C158       C    0.5000000000    0.5000000000   -0.0818733263          0.2482
C159       C    0.5818733263    0.5000000000    0.0000000000          0.2464
C160       C    0.5000000000    0.5000000000    0.0818733263          0.2633
C161       C    0.5000000000    0.5818733263    0.0000000000          0.2538
Zn162     Zn    0.4743785940    0.4743785940    0.4743785940          1.4972
Zn163     Zn    0.5256214060    0.4743785940    0.5256214060          1.4936
Zn164     Zn    0.5256214060    0.5256214060    0.4743785940          1.4911
Zn165     Zn    0.4743785940    0.5256214060    0.5256214060          1.4948
O166       O    0.5000000000    0.5000000000    0.5000000000         -2.3589
O167       O    0.4811701404    0.4315223821    0.4811701404         -1.2652
O168       O    0.5684776179    0.4811701404    0.5188298596         -1.2634
O169       O    0.5188298596    0.5188298596    0.4315223821         -1.2586
O170       O    0.5188298596    0.4315223821    0.5188298596         -1.2653
O171       O    0.4811701404    0.4811701404    0.4315223821         -1.2613
O172       O    0.5684776179    0.5188298596    0.4811701404         -1.2672
O173       O    0.4811701404    0.5684776179    0.5188298596         -1.2611
O174       O    0.5188298596    0.4811701404    0.5684776179         -1.2686
O175       O    0.5188298596    0.5684776179    0.4811701404         -1.2625
O176       O    0.4811701404    0.5188298596    0.5684776179         -1.2672
O177       O    0.4315223821    0.5188298596    0.5188298596         -1.2663
O178       O    0.4315223821    0.4811701404    0.4811701404         -1.2642
C179       C    0.5000000000    0.4181266737    0.5000000000          0.2537
C180       C    0.5818733263    0.5000000000    0.5000000000          0.2586
C181       C    0.5000000000    0.5000000000    0.4181266737          0.2482
C182       C    0.5000000000    0.5818733263    0.5000000000           0.252
C183       C    0.5000000000    0.5000000000    0.5818733263          0.2633
C184       C    0.4181266737    0.5000000000    0.5000000000          0.2538
C921       C    0.5000000000    0.5000000000   -0.1170650541         -0.5201
C922       C    0.4993648632    0.5297831620   -0.1241481095          0.4788
C923       C    0.4957746328    0.5389301300   -0.1533204460           0.476
C924       C    0.4930273733    0.5185898285   -0.1764583330          0.4745
C925       C    0.4930487766    0.4887729615   -0.1683316933           0.475
C926       C    0.4964470495    0.4797328296   -0.1395860252          0.4777
N927       N    0.4904222124    0.5286248689   -0.2046486564          0.4726
C928       C    0.4960627806    0.5644417958   -0.1542252615          0.4758
H929       H    0.5020392906    0.5462819226   -0.1054739988         -0.5195
H930       H    0.4964626370    0.4552886522   -0.1350488436          0.4781
H931       H    0.4902003641    0.4706300743   -0.1850989822          0.4733
N932       N    0.4959404438    0.5078964760   -0.2243689281          0.4786
C933       C    0.4878209205    0.5165758059   -0.2558172596          0.4717
C934       C    0.4892773154    0.4872227700   -0.2748801535          0.4742
N935       N    0.4759589729    0.4941479899   -0.3049851513          0.4626
N936       N    0.4560463093    0.5061817121   -0.2950967027           0.444
N937       N    0.4679467457    0.5210010958   -0.2707988021          0.4539
C938       C    0.4987915241    0.4972750085   -0.3296718809         -0.5161
H939       H    0.5130192682    0.4795157012   -0.2769799249          -0.504
H940       H    0.4766466970    0.4686005277   -0.2635402606          0.4628
H941       H    0.5038491123    0.5339261244   -0.2645093962         -0.5139
O942       O    0.4857067247    0.4852214671   -0.3572756946          0.4729
C943       C    0.5025472639    0.5333892284   -0.3720547576         -0.5125
C944       C    0.5067423308    0.5308325940   -0.3373091550         -0.5095
H945       H    0.4917569599    0.5471354941   -0.3257648276          0.4763
H946       H    0.5217259276    0.5452455353   -0.3827739096         -0.4951
H947       H    0.4814398428    0.5458243638   -0.3769431793          0.4681
H948       H    0.5302905418    0.5358084688   -0.3307068746         -0.4883
H949       H    0.5228178903    0.4903080644   -0.3861366568         -0.4928
C950       C    0.5000000000    0.5000000000   -0.3829349459         -0.5138
H951       H    0.5194144015    0.4837542860   -0.3247541463         -0.4972
N952       N    0.4981979218    0.5899291015   -0.1597054774          0.4773
C889       C    0.5000000000    0.5000000000    0.1170650541         -0.5201
C890       C    0.4702425648    0.5013911109    0.1241481095          0.4788
C891       C    0.4611896996    0.5052124205    0.1533204460           0.476
C892       C    0.4815931955    0.5074423649    0.1764583330          0.4745
C893       C    0.5113999072    0.5066639340    0.1683316933           0.475
C894       C    0.5203508445    0.5030372324    0.1395860252          0.4777
N895       N    0.4716275338    0.5103014704    0.2046486564          0.4726
C896       C    0.4356789419    0.5055720934    0.1542252615          0.4758
H897       H    0.4536812205    0.4991364404    0.1054739988         -0.5195
H898       H    0.5447867462    0.5024010252    0.1350488436          0.4781
H899       H    0.5296092654    0.5090507900    0.1850989822          0.4733
N900       N    0.4922091396    0.5042587349    0.2243689281          0.4786
C901       C    0.4837387580    0.5125960043    0.2558172596          0.4717
C902       C    0.5130453544    0.5103948208    0.2748801535          0.4742
N903       N    0.5064605126    0.5238846976    0.3049851513          0.4626
N904       N    0.4949362417    0.5440964719    0.2950967027           0.444
N905       N    0.4798194895    0.5325761282    0.2707988021          0.4539
C906       C    0.5027547956    0.5011389002    0.3296718809         -0.5161
H907       H    0.5201471430    0.4864648432    0.2769799249          -0.504
H908       H    0.5319822783    0.5225485586    0.2635402606          0.4628
H909       H    0.4659870853    0.4970134949    0.2645093962         -0.5139
O910       O    0.5151366676    0.5139134485    0.3572756946          0.4729
C911       C    0.4665568614    0.4983012922    0.3720547576         -0.5125
C912       C    0.4690061611    0.4940426660    0.3373091550         -0.5095
H913       H    0.4530889872    0.5094371282    0.3257648276          0.4763
H914       H    0.4542174404    0.4794298364    0.3827739096         -0.4951
H915       H    0.4546616409    0.5197176305    0.3769431793          0.4681
H916       H    0.4634340137    0.4706283809    0.3307068746         -0.4883
H917       H    0.5091094771    0.4769433922    0.3861366568         -0.4928
C918       C    0.5000000000    0.5000000000    0.3829349459         -0.5138
H919       H    0.5157475555    0.4801793869    0.3247541463         -0.4972
N920       N    0.4101456423    0.5040847498    0.1597054774          0.4773
C857       C    0.5000000000    0.8829349459    0.5000000000         -0.5201
C858       C    0.5286441020    0.8758518905    0.5081826374          0.4788
C859       C    0.5384432116    0.8466795540    0.5074517269           0.476
C860       C    0.5198195978    0.8235416670    0.4988240790          0.4745
C861       C    0.4913244145    0.8316683067    0.4900450959           0.475
C862       C    0.4816840324    0.8604139748    0.4906241275          0.4777
N863       N    0.5301765165    0.7953513436    0.4992964486          0.4726
C864       C    0.5627335877    0.8457747385    0.5152559405          0.4758
H865       H    0.5436187656    0.8945260012    0.5156069971         -0.5195
H866       H    0.4583239632    0.8649511564    0.4834251541          0.4781
H867       H    0.4748301972    0.8149010178    0.4819692921          0.4733
N868       N    0.5087428182    0.7756310719    0.4984516265          0.4786
C869       C    0.5194317841    0.7441827404    0.4932551438          0.4717
C870       C    0.4909562846    0.7251198465    0.4859841239          0.4742
N871       N    0.5015035205    0.6950148487    0.4753027040          0.4626
N872       N    0.5188778227    0.7049032973    0.4598282650           0.444
N873       N    0.5295251640    0.7292011979    0.4755721096          0.4539
C874       C    0.4977530162    0.6703281191    0.4980411594         -0.5161
H875       H    0.4765858485    0.7230200751    0.5063941655          -0.504
H876       H    0.4768909470    0.7364597394    0.4684203342          0.4628
H877       H    0.5312791694    0.7354906038    0.5136898188         -0.5139
O878       O    0.4900978551    0.6427243054    0.4819819457          0.4729
C879       C    0.5311503823    0.6279452424    0.5122875063         -0.5125
C880       C    0.5274695855    0.6626908450    0.5155412274         -0.5095
H881       H    0.5474687999    0.6742351724    0.5060345291          0.4763
H882       H    0.5368186968    0.6172260904    0.5341109653         -0.4951
H883       H    0.5492608114    0.6230568207    0.4957899861          0.4681
H884       H    0.5252743893    0.6692931254    0.5395090952         -0.4883
H885       H    0.4840058058    0.6138633432    0.5189413697         -0.4928
C886       C    0.5000000000    0.6170650541    0.5000000000         -0.5138
H887       H    0.4787483471    0.6752458537    0.5137553428         -0.4972
N888       N    0.5864556114    0.8402945226    0.5248176960          0.4773
C825       C    0.5000000000    1.1170650541    0.5000000000         -0.5201
C826       C    0.4849276378    1.1241481095    0.5256956034          0.4788
C827       C    0.4773341379    1.1533204460    0.5319322321           0.476
C828       C    0.4848502380    1.1764583330    0.5128329248          0.4745
C829       C    0.4994031476    1.1683316933    0.4868087276           0.475
C830       C    0.5067769624    1.1395860252    0.4805718134          0.4777
N831       N    0.4776839620    1.2046486564    0.5203251465          0.4726
C832       C    0.4651500821    1.1542252615    0.5543482287          0.4758
H833       H    0.4792205021    1.1054739988    0.5414051631         -0.5195
H834       H    0.5187058782    1.1350488436    0.4592359511          0.4781
H835       H    0.5057597970    1.1850989822    0.4695787880          0.4733
N836       N    0.4926062596    1.2243689281    0.5049159874          0.4786
C837       C    0.4812859527    1.2558172596    0.5085364952          0.4717
C838       C    0.4968657324    1.2748801535    0.4836167788          0.4742
N839       N    0.4818611110    1.3049851513    0.4831715208          0.4626
N840       N    0.4586085133    1.2950967027    0.4839723578           0.444
N841       N    0.4617756891    1.2707988021    0.5027127824          0.4539
C842       C    0.5002731141    1.3296718809    0.4970315995         -0.5161
H843       H    0.5213528525    1.2769799249    0.4884603496          -0.504
H844       H    0.4949146995    1.2635402606    0.4611999569          0.4628
H845       H    0.4868235793    1.2645093962    0.5314988812         -0.5139
O846       O    0.4947236016    1.3572756946    0.4801288558          0.4729
C847       C    0.4859485787    1.3720547576    0.5303955044         -0.5125
C848       C    0.4908577366    1.3373091550    0.5302080601         -0.5095
H849       H    0.4698264006    1.3257648276    0.5371383415          0.4763
H850       H    0.4969150974    1.3827739096    0.5500964846         -0.4951
H851       H    0.4614571084    1.3769431793    0.5309644516          0.4681
H852       H    0.5089933945    1.3307068746    0.5460313178         -0.4883
H853       H    0.5246477966    1.3861366568    0.5026600483         -0.4928
C854       C    0.5000000000    1.3829349459    0.5000000000         -0.5138
H855       H    0.5248706735    1.3247541463    0.4952785801         -0.4972
N856       N    0.4545906048    1.1597054774    0.5776432715          0.4773
C793       C    0.5000000000    0.8829349459    0.0000000000         -0.5201
C794       C    0.4785095509    0.8758518905   -0.0206300930          0.4788
C795       C    0.4695065273    0.8466795540   -0.0245673945           0.476
C796       C    0.4819320062    0.8235416670   -0.0082308474          0.4745
C797       C    0.5030119018    0.8316683067    0.0128566849           0.475
C798       C    0.5118035925    0.8604139748    0.0168539864          0.4777
N799       N    0.4729987605    0.7953513436   -0.0134925979          0.4726
C800       C    0.4516872133    0.8457747385   -0.0428266433          0.4758
H801       H    0.4687464624    0.8945260012   -0.0341963661         -0.5195
H802       H    0.5290837233    0.8649511564    0.0341431486          0.4781
H803       H    0.5138133813    0.8149010178    0.0277094911          0.4733
N804       N    0.4915482509    0.7756310719   -0.0027207106          0.4786
C805       C    0.4796700285    0.7441827404   -0.0031272315          0.4717
C806       C    0.5014378450    0.7251198465    0.0166182482          0.4742
N807       N    0.4871194268    0.6950148487    0.0211259991          0.4626
N808       N    0.4645249218    0.7049032973    0.0266769434           0.444
N809       N    0.4624778993    0.7292011979    0.0077813297          0.4539
C810       C    0.5010698378    0.6703281191    0.0027823443         -0.5161
H811       H    0.5236858448    0.7230200751    0.0052998678          -0.504
H812       H    0.5056546956    0.7364597394    0.0387211575          0.4628
H813       H    0.4787563608    0.7354906038   -0.0267302333         -0.5139
O814       O    0.5003246497    0.6427243054    0.0205571729          0.4729
C815       C    0.4782142892    0.6279452424   -0.0254305315         -0.5125
C816       C    0.4829895025    0.6626908450   -0.0265847861         -0.5095
H817       H    0.4608662003    0.6742351724   -0.0275363076          0.4763
H818       H    0.4834117022    0.6172260904   -0.0473709064         -0.4951
H819       H    0.4544906172    0.6230568207   -0.0193196229          0.4681
H820       H    0.4961402531    0.6692931254   -0.0467425472         -0.4883
H821       H    0.5229962524    0.6138633432   -0.0092607833         -0.4928
C822       C    0.5000000000    0.6170650541    0.0000000000         -0.5138
H823       H    0.5252175134    0.6752458537   -0.0022179326         -0.4972
N824       N    0.4351923039    0.8402945226   -0.0623734984          0.4773
C761       C    0.5000000000    1.3829349459    0.0000000000         -0.5201
C762       C    0.4978264419    1.3758518905    0.0297105332          0.4788
C763       C    0.5005389689    1.3466795540    0.0391550541           0.476
C764       C    0.5051902682    1.3235416670    0.0191640383          0.4745
C765       C    0.5079780055    1.3316683067   -0.0105222302           0.475
C766       C    0.5054465172    1.3604139748   -0.0198423059          0.4777
N767       N    0.5068384417    1.2953513436    0.0293998784          0.4726
C768       C    0.4978486501    1.3457747385    0.0645261066          0.4758
H769       H    0.4936095621    1.3945260012    0.0458839555         -0.5195
H770       H    0.5077338836    1.3649511564   -0.0441792327          0.4781
H771       H    0.5125229897    1.3149010178   -0.0283160755          0.4733
N772       N    0.5032975742    1.2756310719    0.0082438058          0.4786
C773       C    0.5105633055    1.2441827404    0.0176494729          0.4717
C774       C    0.5118787360    1.2251198465   -0.0117102179          0.4742
N775       N    0.5244854186    1.1950148487   -0.0035610786          0.4626
N776       N    0.5431758214    1.2049032973    0.0102950927           0.444
N777       N    0.5299321807    1.2292011979    0.0239274256          0.4539
C778       C    0.5014598223    1.1703281191   -0.0025990213         -0.5161
H779       H    0.4889684616    1.2230200751   -0.0216197364          -0.504
H780       H    0.5262075782    1.2364597394   -0.0290597052          0.4628
H781       H    0.4929718289    1.2354906038    0.0334126083         -0.5139
O782       O    0.5156219886    1.1427243054   -0.0133662346          0.4729
C783       C    0.4943184681    1.1279452424    0.0330007473         -0.5125
C784       C    0.4903829198    1.1626908450    0.0300602669         -0.5095
H785       H    0.5037657457    1.1742351724    0.0477024283          0.4763
H786       H    0.4741081224    1.1172260904    0.0429975007         -0.4951
H787       H    0.5141604974    1.1230568207    0.0473691046          0.4681
H788       H    0.4664706660    1.1692931254    0.0327955351         -0.4883
H789       H    0.4781966723    1.1138633432   -0.0117985015         -0.4928
C790       C    0.5000000000    1.1170650541    0.0000000000         -0.5138
H791       H    0.4822024547    1.1752458537   -0.0180024884         -0.4972
N792       N    0.4933218476    1.3402945226    0.0896989022          0.4773
C729       C    0.5000000000    1.0000000000   -0.3829349459         -0.5201
C730       C    0.5006351368    1.0297831620   -0.3758518905          0.4788
C731       C    0.5042253672    1.0389301300   -0.3466795540           0.476
C732       C    0.5069726267    1.0185898285   -0.3235416670          0.4745
C733       C    0.5069512234    0.9887729615   -0.3316683067           0.475
C734       C    0.5035529505    0.9797328296   -0.3604139748          0.4777
N735       N    0.5095777876    1.0286248689   -0.2953513436          0.4726
C736       C    0.5039372194    1.0644417958   -0.3457747385          0.4758
H737       H    0.4979607094    1.0462819226   -0.3945260012         -0.5195
H738       H    0.5035373630    0.9552886522   -0.3649511564          0.4781
H739       H    0.5097996359    0.9706300743   -0.3149010178          0.4733
N740       N    0.5040595562    1.0078964760   -0.2756310719          0.4786
C741       C    0.5121790795    1.0165758059   -0.2441827404          0.4717
C742       C    0.5107226846    0.9872227700   -0.2251198465          0.4742
N743       N    0.5240410271    0.9941479899   -0.1950148487          0.4626
N744       N    0.5439536907    1.0061817121   -0.2049032973           0.444
N745       N    0.5320532543    1.0210010958   -0.2292011979          0.4539
C746       C    0.5012084759    0.9972750085   -0.1703281191         -0.5161
H747       H    0.4869807318    0.9795157012   -0.2230200751          -0.504
H748       H    0.5233533030    0.9686005277   -0.2364597394          0.4628
H749       H    0.4961508877    1.0339261244   -0.2354906038         -0.5139
O750       O    0.5142932753    0.9852214671   -0.1427243054          0.4729
C751       C    0.4974527361    1.0333892284   -0.1279452424         -0.5125
C752       C    0.4932576692    1.0308325940   -0.1626908450         -0.5095
H753       H    0.5082430401    1.0471354941   -0.1742351724          0.4763
H754       H    0.4782740724    1.0452455353   -0.1172260904         -0.4951
H755       H    0.5185601572    1.0458243638   -0.1230568207          0.4681
H756       H    0.4697094582    1.0358084688   -0.1692931254         -0.4883
H757       H    0.4771821097    0.9903080644   -0.1138633432         -0.4928
C758       C    0.5000000000    1.0000000000   -0.1170650541         -0.5138
H759       H    0.4805855985    0.9837542860   -0.1752458537         -0.4972
N760       N    0.5018020782    1.0899291015   -0.3402945226          0.4773
C697       C    0.5000000000    1.0000000000    0.1170650541         -0.5201
C698       C    0.5297574352    0.9986088891    0.1241481095          0.4788
C699       C    0.5388103004    0.9947875795    0.1533204460           0.476
C700       C    0.5184068045    0.9925576351    0.1764583330          0.4745
C701       C    0.4886000928    0.9933360660    0.1683316933           0.475
C702       C    0.4796491555    0.9969627676    0.1395860252          0.4777
N703       N    0.5283724662    0.9896985296    0.2046486564          0.4726
C704       C    0.5643210581    0.9944279066    0.1542252615          0.4758
H705       H    0.5463187795    1.0008635596    0.1054739988         -0.5195
H706       H    0.4552132538    0.9975989748    0.1350488436          0.4781
H707       H    0.4703907346    0.9909492100    0.1850989822          0.4733
N708       N    0.5077908604    0.9957412651    0.2243689281          0.4786
C709       C    0.5162612420    0.9874039957    0.2558172596          0.4717
C710       C    0.4869546456    0.9896051792    0.2748801535          0.4742
N711       N    0.4935394874    0.9761153024    0.3049851513          0.4626
N712       N    0.5050637583    0.9559035281    0.2950967027           0.444
N713       N    0.5201805105    0.9674238718    0.2707988021          0.4539
C714       C    0.4972452044    0.9988610998    0.3296718809         -0.5161
H715       H    0.4798528570    1.0135351568    0.2769799249          -0.504
H716       H    0.4680177217    0.9774514414    0.2635402606          0.4628
H717       H    0.5340129147    1.0029865051    0.2645093962         -0.5139
O718       O    0.4848633324    0.9860865515    0.3572756946          0.4729
C719       C    0.5334431386    1.0016987078    0.3720547576         -0.5125
C720       C    0.5309938389    1.0059573340    0.3373091550         -0.5095
H721       H    0.5469110128    0.9905628718    0.3257648276          0.4763
H722       H    0.5457825596    1.0205701636    0.3827739096         -0.4951
H723       H    0.5453383591    0.9802823695    0.3769431793          0.4681
H724       H    0.5365659863    1.0293716191    0.3307068746         -0.4883
H725       H    0.4908905229    1.0230566078    0.3861366568         -0.4928
C726       C    0.5000000000    1.0000000000    0.3829349459         -0.5138
H727       H    0.4842524445    1.0198206131    0.3247541463         -0.4972
N728       N    0.5898543577    0.9959152502    0.1597054774          0.4773
C665       C    0.6170650541    0.5000000000    0.5000000000         -0.5201
C666       C    0.6241481095    0.5201340897    0.4780441678          0.4788
C667       C    0.6533204460    0.5238648263    0.4689536022           0.476
C668       C    0.6764583330    0.5078162104    0.4817488055          0.4745
C669       C    0.6683316933    0.4872154276    0.5033046345           0.475
C670       C    0.6395860252    0.4834198820    0.5121852920          0.4777
N671       N    0.7046486564    0.5128726438    0.4726977625          0.4726
C672       C    0.6542252615    0.5417125017    0.4507220745          0.4758
H673       H    0.6054739988    0.5334739360    0.4679739063         -0.5195
H674       H    0.6350488436    0.4665297308    0.5298556300          0.4781
H675       H    0.6850989822    0.4726130901    0.5144423878          0.4733
N676       N    0.7243689281    0.5025270483    0.4914883400          0.4786
C677       C    0.7558172596    0.5026622839    0.4796039327          0.4717
C678       C    0.7748801535    0.4834189091    0.5018168643          0.4742
N679       N    0.8049851513    0.4785854441    0.4876050898          0.4626
N680       N    0.7950967027    0.4725201147    0.4651432017           0.444
N681       N    0.7707988021    0.4913640701    0.4626653264          0.4539
C682       C    0.8296718809    0.4972428052    0.5011330798         -0.5161
H683       H    0.7769799249    0.4952422606    0.5238006672          -0.504
H684       H    0.7635402606    0.4614180312    0.5065372246          0.4628
H685       H    0.7645093962    0.5262382748    0.4781516473         -0.5139
O686       O    0.8572756946    0.4794555968    0.5007938846          0.4729
C687       C    0.8720547576    0.5249265362    0.4776393891         -0.5125
C688       C    0.8373091550    0.5261895080    0.4823870063         -0.5095
H689       H    0.8257648276    0.5266357072    0.4602477471          0.4763
H690       H    0.8827739096    0.5469798494    0.4823345495         -0.4951
H691       H    0.8769431793    0.5182756097    0.4540614123          0.4681
H692       H    0.8307068746    0.5466422464    0.4950741282         -0.4883
H693       H    0.8861366568    0.5097833733    0.5227788354         -0.4928
C694       C    0.8829349459    0.5000000000    0.5000000000         -0.5138
H695       H    0.8247541463    0.5027930695    0.5251603054         -0.4972
N696       N    0.6597054774    0.5608776839    0.4337852103          0.4773
C633       C    1.1170650541    0.5000000000    0.5000000000         -0.5201
C634       C    1.1241481095    0.5206194620    0.4784993507          0.4788
C635       C    1.1533204460    0.5245523105    0.4694943809           0.476
C636       C    1.1764583330    0.5082219106    0.4819279378          0.4745
C637       C    1.1683316933    0.4871448062    0.5030182599           0.475
C638       C    1.1395860252    0.4831518533    0.5118119264          0.4777
N639       N    1.2046486564    0.5134792425    0.4729920908          0.4726
C640       C    1.1542252615    0.5428027443    0.4516660387          0.4758
H641       H    1.1054739988    0.5341809050    0.4687295539         -0.5195
H642       H    1.1350488436    0.4658712393    0.5291006058          0.4781
H643       H    1.1850989822    0.4722973439    0.5138270837          0.4733
N644       N    1.2243689281    0.5027165303    0.4915469063          0.4786
C645       C    1.2558172596    0.5031171767    0.4796684844          0.4717
C646       C    1.2748801535    0.4833824650    0.5014460636          0.4742
N647       N    1.3049851513    0.4788676332    0.4871298765          0.4626
N648       N    1.2950967027    0.4733055151    0.4645381196           0.444
N649       N    1.2707988021    0.4922001142    0.4624817522          0.4539
C650       C    1.3296718809    0.4972181851    0.5010712137         -0.5161
H651       H    1.2769799249    0.4947118470    0.5236884630          -0.504
H652       H    1.2635402606    0.4612816438    0.5056738450          0.4628
H653       H    1.2645093962    0.5267197237    0.4787431436         -0.5139
O654       O    1.3572756946    0.4794429902    0.5003348165          0.4729
C655       C    1.3720547576    0.5254197539    0.4782017148         -0.5125
C656       C    1.3373091550    0.5265763701    0.4829763567         -0.5095
H657       H    1.3257648276    0.5275169500    0.4608525867          0.4763
H658       H    1.3827739096    0.5473626966    0.4833882763         -0.4951
H659       H    1.3769431793    0.5192971132    0.4544810679          0.4681
H660       H    1.3307068746    0.5467406325    0.4961171364         -0.4883
H661       H    1.3861366568    0.5092721553    0.5229916696         -0.4928
C662       C    1.3829349459    0.5000000000    0.5000000000         -0.5138
H663       H    1.3247541463    0.5022304040    0.5252164134         -0.4972
N664       N    1.1597054774    0.5623414393    0.4351614642          0.4773
C601       C    0.8829349459    0.5000000000    0.0000000000         -0.5201
C602       C    0.8758518905    0.4742243175    0.0149350034          0.4788
C603       C    0.8466795540    0.4645437291    0.0166211192           0.476
C604       C    0.8235416670    0.4804940305    0.0037035658          0.4745
C605       C    0.8316683067    0.5059795658   -0.0117733043           0.475
C606       C    0.8604139748    0.5154691214   -0.0135679009          0.4777
N607       N    0.7953513436    0.4705666248    0.0066927991          0.4726
C608       C    0.8457747385    0.4428972629    0.0301251417          0.4758
H609       H    0.8945260012    0.4615182353    0.0257939693         -0.5195
H610       H    0.8649511564    0.5363614099   -0.0262576737          0.4781
H611       H    0.8149010178    0.5199999118   -0.0236353321          0.4733
N612       N    0.7756310719    0.4911438870    0.0006352887          0.4786
C613       C    0.7441827404    0.4795090592   -0.0017912745          0.4717
C614       C    0.7251198465    0.5053440475   -0.0158010989          0.4742
N615       N    0.6950148487    0.4925061560   -0.0235809098          0.4626
N616       N    0.7049032973    0.4718768311   -0.0343398873           0.444
N617       N    0.7292011979    0.4654000952   -0.0164713000          0.4539
C618       C    0.6703281191    0.5017001127   -0.0024485934         -0.5161
H619       H    0.7230200751    0.5242668377    0.0004779442          -0.504
H620       H    0.7364597394    0.5146903440   -0.0362697866          0.4628
H621       H    0.7354906038    0.4730150894    0.0209191821         -0.5139
O622       O    0.6427243054    0.5051983299   -0.0198917098          0.4729
C623       C    0.6279452424    0.4727972518    0.0195279189         -0.5125
C624       C    0.6626908450    0.4771616264    0.0217834012         -0.5095
H625       H    0.6742351724    0.4554454795    0.0174527136          0.4763
H626       H    0.6172260904    0.4726343889    0.0420749061         -0.4951
H627       H    0.6230568207    0.4512040859    0.0079567909          0.4681
H628       H    0.6692931254    0.4851479022    0.0444879596         -0.4883
H629       H    0.6138633432    0.5201383714    0.0144580681         -0.4928
C630       C    0.6170650541    0.5000000000    0.0000000000         -0.5138
H631       H    0.6752458537    0.5239689570    0.0081444035         -0.4972
N632       N    0.8402945226    0.4222314501    0.0451945066          0.4773
C569       C    1.1170650541    0.5000000000    0.0000000000         -0.5201
C570       C    1.1241481095    0.4872932368    0.0269439846          0.4788
C571       C    1.1533204460    0.4864299913    0.0367323238           0.476
C572       C    1.1764583330    0.4979555742    0.0197489131          0.4745
C573       C    1.1683316933    0.5112267544   -0.0069516822           0.475
C574       C    1.1395860252    0.5122142134   -0.0165588237          0.4777
N575       N    1.2046486564    0.4958146853    0.0298931476          0.4726
C576       C    1.1542252615    0.4748006785    0.0594410711          0.4758
H577       H    1.1054739988    0.4775451494    0.0405210409         -0.5195
H578       H    1.1350488436    0.5230958187   -0.0384473760          0.4781
H579       H    1.1850989822    0.5218634276   -0.0219229544          0.4733
N580       N    1.2243689281    0.5001142639    0.0088781346          0.4786
C581       C    1.2558172596    0.5035139302    0.0202667119          0.4717
C582       C    1.2748801535    0.5152938098   -0.0066582995          0.4742
N583       N    1.3049851513    0.5241291475    0.0054773391          0.4626
N584       N    1.2950967027    0.5365904751    0.0251252386           0.444
N585       N    1.2707988021    0.5193321278    0.0330866434          0.4539
C586       C    1.3296718809    0.5022964036   -0.0019006639         -0.5161
H587       H    1.2769799249    0.4974761025   -0.0241399624          -0.504
H588       H    1.2635402606    0.5349008483   -0.0176984295          0.4628
H589       H    1.2645093962    0.4814324360    0.0286538505         -0.5139
O590       O    1.3572756946    0.5193821277   -0.0068582710          0.4729
C591       C    1.3720547576    0.4828371187    0.0287535151         -0.5125
C592       C    1.3373091550    0.4802214105    0.0245950254         -0.5095
H593       H    1.3257648276    0.4863690813    0.0458682958          0.4763
H594       H    1.3827739096    0.4603842863    0.0308183325         -0.4951
H595       H    1.3769431793    0.4961890301    0.0492932882          0.4681
H596       H    1.3307068746    0.4569239371    0.0185530634         -0.4883
H597       H    1.3861366568    0.4838942014   -0.0188465643         -0.4928
C598       C    1.3829349459    0.5000000000    0.0000000000         -0.5138
H599       H    1.3247541463    0.4898621205   -0.0231962412         -0.4972
N600       N    1.1597054774    0.4615288575    0.0813047475          0.4773
C537       C    1.0000000000    0.5000000000   -0.3829349459         -0.5201
C538       C    0.9702425648    0.5013911109   -0.3758518905          0.4788
C539       C    0.9611896996    0.5052124205   -0.3466795540           0.476
C540       C    0.9815931955    0.5074423649   -0.3235416670          0.4745
C541       C    1.0113999072    0.5066639340   -0.3316683067           0.475
C542       C    1.0203508445    0.5030372324   -0.3604139748          0.4777
N543       N    0.9716275338    0.5103014704   -0.2953513436          0.4726
C544       C    0.9356789419    0.5055720934   -0.3457747385          0.4758
H545       H    0.9536812205    0.4991364404   -0.3945260012         -0.5195
H546       H    1.0447867462    0.5024010252   -0.3649511564          0.4781
H547       H    1.0296092654    0.5090507900   -0.3149010178          0.4733
N548       N    0.9922091396    0.5042587349   -0.2756310719          0.4786
C549       C    0.9837387580    0.5125960043   -0.2441827404          0.4717
C550       C    1.0130453544    0.5103948208   -0.2251198465          0.4742
N551       N    1.0064605126    0.5238846976   -0.1950148487          0.4626
N552       N    0.9949362417    0.5440964719   -0.2049032973           0.444
N553       N    0.9798194895    0.5325761282   -0.2292011979          0.4539
C554       C    1.0027547956    0.5011389002   -0.1703281191         -0.5161
H555       H    1.0201471430    0.4864648432   -0.2230200751          -0.504
H556       H    1.0319822783    0.5225485586   -0.2364597394          0.4628
H557       H    0.9659870853    0.4970134949   -0.2354906038         -0.5139
O558       O    1.0151366676    0.5139134485   -0.1427243054          0.4729
C559       C    0.9665568614    0.4983012922   -0.1279452424         -0.5125
C560       C    0.9690061611    0.4940426660   -0.1626908450         -0.5095
H561       H    0.9530889872    0.5094371282   -0.1742351724          0.4763
H562       H    0.9542174404    0.4794298364   -0.1172260904         -0.4951
H563       H    0.9546616409    0.5197176305   -0.1230568207          0.4681
H564       H    0.9634340137    0.4706283809   -0.1692931254         -0.4883
H565       H    1.0091094771    0.4769433922   -0.1138633432         -0.4928
C566       C    1.0000000000    0.5000000000   -0.1170650541         -0.5138
H567       H    1.0157475555    0.4801793869   -0.1752458537         -0.4972
N568       N    0.9101456423    0.5040847498   -0.3402945226          0.4773
C505       C    1.0000000000    0.5000000000    0.3829349459         -0.5201
C506       C    1.0297574352    0.5013911109    0.3758518905          0.4788
C507       C    1.0388103004    0.5052124205    0.3466795540           0.476
C508       C    1.0184068045    0.5074423649    0.3235416670          0.4745
C509       C    0.9886000928    0.5066639340    0.3316683067           0.475
C510       C    0.9796491555    0.5030372324    0.3604139748          0.4777
N511       N    1.0283724662    0.5103014704    0.2953513436          0.4726
C512       C    1.0643210581    0.5055720934    0.3457747385          0.4758
H513       H    1.0463187795    0.4991364404    0.3945260012         -0.5195
H514       H    0.9552132538    0.5024010252    0.3649511564          0.4781
H515       H    0.9703907346    0.5090507900    0.3149010178          0.4733
N516       N    1.0077908604    0.5042587349    0.2756310719          0.4786
C517       C    1.0162612420    0.5125960043    0.2441827404          0.4717
C518       C    0.9869546456    0.5103948208    0.2251198465          0.4742
N519       N    0.9935394874    0.5238846976    0.1950148487          0.4626
N520       N    1.0050637583    0.5440964719    0.2049032973           0.444
N521       N    1.0201805105    0.5325761282    0.2292011979          0.4539
C522       C    0.9972452044    0.5011389002    0.1703281191         -0.5161
H523       H    0.9798528570    0.4864648432    0.2230200751          -0.504
H524       H    0.9680177217    0.5225485586    0.2364597394          0.4628
H525       H    1.0340129147    0.4970134949    0.2354906038         -0.5139
O526       O    0.9848633324    0.5139134485    0.1427243054          0.4729
C527       C    1.0334431386    0.4983012922    0.1279452424         -0.5125
C528       C    1.0309938389    0.4940426660    0.1626908450         -0.5095
H529       H    1.0469110128    0.5094371282    0.1742351724          0.4763
H530       H    1.0457825596    0.4794298364    0.1172260904         -0.4951
H531       H    1.0453383591    0.5197176305    0.1230568207          0.4681
H532       H    1.0365659863    0.4706283809    0.1692931254         -0.4883
H533       H    0.9908905229    0.4769433922    0.1138633432         -0.4928
C534       C    1.0000000000    0.5000000000    0.1170650541         -0.5138
H535       H    0.9842524445    0.4801793869    0.1752458537         -0.4972
N536       N    1.0898543577    0.5040847498    0.3402945226          0.4773
C473       C    1.0000000000   -0.1170650541    0.5000000000         -0.5201
C474       C    1.0297574352   -0.1241481095    0.4986088891          0.4788
C475       C    1.0388103004   -0.1533204460    0.4947875795           0.476
C476       C    1.0184068045   -0.1764583330    0.4925576351          0.4745
C477       C    0.9886000928   -0.1683316933    0.4933360660           0.475
C478       C    0.9796491555   -0.1395860252    0.4969627676          0.4777
N479       N    1.0283724662   -0.2046486564    0.4896985296          0.4726
C480       C    1.0643210581   -0.1542252615    0.4944279066          0.4758
H481       H    1.0463187795   -0.1054739988    0.5008635596         -0.5195
H482       H    0.9552132538   -0.1350488436    0.4975989748          0.4781
H483       H    0.9703907346   -0.1850989822    0.4909492100          0.4733
N484       N    1.0077908604   -0.2243689281    0.4957412651          0.4786
C485       C    1.0162612420   -0.2558172596    0.4874039957          0.4717
C486       C    0.9869546456   -0.2748801535    0.4896051792          0.4742
N487       N    0.9935394874   -0.3049851513    0.4761153024          0.4626
N488       N    1.0050637583   -0.2950967027    0.4559035281           0.444
N489       N    1.0201805105   -0.2707988021    0.4674238718          0.4539
C490       C    0.9972452044   -0.3296718809    0.4988610998         -0.5161
H491       H    0.9798528570   -0.2769799249    0.5135351568          -0.504
H492       H    0.9680177217   -0.2635402606    0.4774514414          0.4628
H493       H    1.0340129147   -0.2645093962    0.5029865051         -0.5139
O494       O    0.9848633324   -0.3572756946    0.4860865515          0.4729
C495       C    1.0334431386   -0.3720547576    0.5016987078         -0.5125
C496       C    1.0309938389   -0.3373091550    0.5059573340         -0.5095
H497       H    1.0469110128   -0.3257648276    0.4905628718          0.4763
H498       H    1.0457825596   -0.3827739096    0.5205701636         -0.4951
H499       H    1.0453383591   -0.3769431793    0.4802823695          0.4681
H500       H    1.0365659863   -0.3307068746    0.5293716191         -0.4883
H501       H    0.9908905229   -0.3861366568    0.5230566078         -0.4928
C502       C    1.0000000000   -0.3829349459    0.5000000000         -0.5138
H503       H    0.9842524445   -0.3247541463    0.5198206131         -0.4972
N504       N    1.0898543577   -0.1597054774    0.4959152502          0.4773
C441       C    1.0000000000    0.1170650541    0.5000000000         -0.5201
C442       C    1.0076399609    0.1241481095    0.5287935954          0.4788
C443       C    1.0067240316    0.1533204460    0.5385771454           0.476
C444       C    0.9984498076    0.1764583330    0.5197938412          0.4745
C445       C    0.9902107938    0.1683316933    0.4911378703           0.475
C446       C    0.9909718722    0.1395860252    0.4815101498          0.4777
N447       N    0.9987264042    0.2046486564    0.5301578363          0.4726
C448       C    1.0140678977    0.1542252615    0.5630106419          0.4758
H449       H    1.0147800566    0.1054739988    0.5439058652         -0.5195
H450       H    0.9842155606    0.1350488436    0.4580182298          0.4781
H451       H    0.9824480816    0.1850989822    0.4744940093          0.4733
N452       N    0.9982867118    0.2243689281    0.5087120017          0.4786
C453       C    0.9928891942    0.2558172596    0.5193008745          0.4717
C454       C    0.9861575024    0.2748801535    0.4906930762          0.4742
N455       N    0.9752787046    0.3049851513    0.5010366092          0.4626
N456       N    0.9594787494    0.2950967027    0.5181154282           0.444
N457       N    0.9750186074    0.2707988021    0.5290583406          0.4539
C458       C    0.9980839647    0.3296718809    0.4977164060         -0.5161
H459       H    1.0068354226    0.2769799249    0.4767108429          -0.504
H460       H    0.9688626056    0.2635402606    0.4762983905          0.4628
H461       H    1.0130963709    0.2645093962    0.5315322478         -0.5139
O462       O    0.9821722583    0.3572756946    0.4897591808          0.4729
C463       C    1.0116967421    0.3720547576    0.5313769876         -0.5125
C464       C    1.0150194292    0.3373091550    0.5277583253         -0.5095
H465       H    1.0051365530    0.3257648276    0.5475743453          0.4763
H466       H    1.0334092054    0.3827739096    0.5374566335         -0.4951
H467       H    0.9948599796    0.3769431793    0.5491724714          0.4681
H468       H    1.0390244954    0.3307068746    0.5260163817         -0.4883
H469       H    1.0192401905    0.3861366568    0.4843665486         -0.4928
C470       C    1.0000000000    0.3829349459    0.5000000000         -0.5138
H471       H    1.0141544265    0.3247541463    0.4790120411         -0.4972
N472       N    1.0231797307    0.1597054774    0.5869090954          0.4773
C409       C    0.6170650541   -0.0000000000    0.5000000000         -0.5201
C410       C    0.6241481095    0.0242466870    0.5173071750          0.4788
C411       C    0.6533204460    0.0337242725    0.5199018138           0.476
C412       C    0.6764583330    0.0190679593    0.5055328270          0.4745
C413       C    0.6683316933   -0.0048386048    0.4877136741           0.475
C414       C    0.6395860252   -0.0141157491    0.4850291189          0.4777
N415       N    0.7046486564    0.0286679383    0.5094480922          0.4726
C416       C    0.6542252615    0.0539956896    0.5353936752          0.4758
H417       H    0.6054739988    0.0358681474    0.5293198068         -0.5195
H418       H    0.6350488436   -0.0337134269    0.4704192223          0.4781
H419       H    0.6850989822   -0.0176735097    0.4745781107          0.4733
N420       N    0.7243689281    0.0087562516    0.5014705061          0.4786
C421       C    0.7558172596    0.0205684960    0.5001558550          0.4717
C422       C    0.7748801535   -0.0038247818    0.4837640949          0.4742
N423       N    0.8049851513    0.0096917140    0.4772340675          0.4626
N424       N    0.7950967027    0.0312466013    0.4684755588           0.444
N425       N    0.7707988021    0.0360033386    0.4868768622          0.4539
C426       C    0.8296718809   -0.0014607689    0.4974015106         -0.5161
H427       H    0.7769799249   -0.0242031654    0.4981793892          -0.504
H428       H    0.7635402606   -0.0111921504    0.4625028082          0.4628
H429       H    0.7645093962    0.0248841960    0.5233789301         -0.5139
O430       O    0.8572756946   -0.0032926170    0.4797056307          0.4729
C431       C    0.8720547576    0.0252327135    0.5220145247         -0.5125
C432       C    0.8373091550    0.0206744847    0.5238468774         -0.5095
H433       H    0.8257648276    0.0427029973    0.5215906584          0.4763
H434       H    0.8827739096    0.0232611877    0.5444757410         -0.4951
H435       H    0.8769431793    0.0478239716    0.5125387200          0.4681
H436       H    0.8307068746    0.0105754794    0.5456937917         -0.4883
H437       H    0.8861366568   -0.0214161880    0.5124874588         -0.4928
C438       C    0.8829349459   -0.0000000000    0.5000000000         -0.5138
H439       H    0.8247541463   -0.0246321110    0.5058396332         -0.4972
N440       N    0.6597054774    0.0731427233    0.5523510535          0.4773
C377       C    1.3829349459   -0.0000000000    0.5000000000         -0.5201
C378       C    1.3758518905    0.0247456530    0.5165859216          0.4788
C379       C    1.3466795540    0.0305157642    0.5245397002           0.476
C380       C    1.3235416670    0.0119014755    0.5158919517          0.4745
C381       C    1.3316683067   -0.0132033259    0.4998048461           0.475
C382       C    1.3604139748   -0.0189868941    0.4920703402          0.4777
N383       N    1.2953513436    0.0189505365    0.5234945590          0.4726
C384       C    1.3457747385    0.0521608901    0.5380458708          0.4758
H385       H    1.3945260012    0.0400847561    0.5232247152         -0.5195
H386       H    1.3649511564   -0.0395691270    0.4788836142          0.4781
H387       H    1.3149010178   -0.0300211295    0.4924265473          0.4733
N388       N    1.2756310719    0.0044638233    0.5076751946          0.4786
C389       C    1.2441827404    0.0073990655    0.5191922158          0.4717
C390       C    1.2251198465   -0.0165416722    0.5021463108          0.4742
N391       N    1.1950148487   -0.0178857877    0.5170972396          0.4626
N392       N    1.2049032973   -0.0184805888    0.5403560197           0.444
N393       N    1.2292011979    0.0004160191    0.5383181949          0.4539
C394       C    1.1703281191   -0.0029466843    0.4995493956         -0.5161
H395       H    1.2230200751   -0.0102385981    0.4779936611          -0.504
H396       H    1.2364597394   -0.0390351445    0.5027497485          0.4628
H397       H    1.2354906038    0.0306521682    0.5150413485         -0.5139
O398       O    1.1427243054   -0.0201517595    0.5040754560          0.4729
C399       C    1.1279452424    0.0294983125    0.5158486178         -0.5125
C400       C    1.1626908450    0.0296055526    0.5109370533         -0.5095
H401       H    1.1742351724    0.0352623524    0.5323460819          0.4763
H402       H    1.1172260904    0.0498213868    0.5060830760         -0.4951
H403       H    1.1230568207    0.0285977577    0.5403301377          0.4681
H404       H    1.1692931254    0.0464877336    0.4937827671         -0.4883
H405       H    1.1138633432    0.0041331140    0.4755560416         -0.4928
C406       C    1.1170650541   -0.0000000000    0.5000000000         -0.5138
H407       H    1.1752458537   -0.0032217104    0.4748909819         -0.4972
N408       N    1.3402945226    0.0747808885    0.5499830921          0.4773
C345       C   -0.0000000000   -0.1170650541    0.0000000000         -0.5201
C346       C   -0.0216898283   -0.1241481095    0.0204203694          0.4788
C347       C   -0.0260770990   -0.1533204460    0.0292129022           0.476
C348       C   -0.0091334613   -0.1764583330    0.0176289288          0.4745
C349       C    0.0129924729   -0.1683316933   -0.0023582934           0.475
C350       C    0.0174289865   -0.1395860252   -0.0109367309          0.4777
N351       N   -0.0148399621   -0.2046486564    0.0262848370          0.4726
C352       C   -0.0452135786   -0.1542252615    0.0460866472          0.4758
H353       H   -0.0357321785   -0.1054739988    0.0294853606         -0.5195
H354       H    0.0355693695   -0.1350488436   -0.0273210086          0.4781
H355       H    0.0283721910   -0.1850989822   -0.0123953289          0.4733
N356       N   -0.0031443738   -0.2243689281    0.0083034477          0.4786
C357       C   -0.0041506847   -0.2558172596    0.0201459459          0.4717
C358       C    0.0166696786   -0.2748801535   -0.0005961437          0.4742
N359       N    0.0204480355   -0.3049851513    0.0139317928          0.4626
N360       N    0.0248499904   -0.2950967027    0.0367779617           0.444
N361       N    0.0058750695   -0.2707988021    0.0378674094          0.4539
C362       C    0.0028328569   -0.3296718809   -0.0009278547         -0.5161
H363       H    0.0064901458   -0.2769799249   -0.0233877286          -0.504
H364       H    0.0389574567   -0.2635402606   -0.0036905543          0.4628
H365       H   -0.0277696998   -0.2645093962    0.0198655821         -0.5139
O366       O    0.0205473103   -0.3572756946    0.0007146971          0.4729
C367       C   -0.0264990545   -0.3720547576    0.0204726462         -0.5125
C368       C   -0.0274105012   -0.3373091550    0.0156452006         -0.5095
H369       H   -0.0294788886   -0.3257648276    0.0376921429          0.4763
H370       H   -0.0481487216   -0.3827739096    0.0141730378         -0.4951
H371       H   -0.0215949174   -0.3769431793    0.0444748389          0.4681
H372       H   -0.0468778815   -0.3307068746    0.0014925091         -0.4883
H373       H   -0.0080867494   -0.3861366568   -0.0234348932         -0.4928
C374       C    0.0000000000   -0.3829349459    0.0000000000         -0.5138
H375       H   -0.0009406391   -0.3247541463   -0.0252973794         -0.4972
N376       N   -0.0655690855   -0.1597054774    0.0615726060          0.4773
C313       C   -0.0000000000    0.1170650541    0.0000000000         -0.5201
C314       C    0.0112254267    0.1241481095    0.0275940199          0.4788
C315       C    0.0115560585    0.1533204460    0.0374147867           0.476
C316       C    0.0009693804    0.1764583330    0.0198307728          0.4745
C317       C   -0.0108328431    0.1683316933   -0.0075508550           0.475
C318       C   -0.0112973413    0.1395860252   -0.0171974339          0.4777
N319       N    0.0025564528    0.2046486564    0.0300762645          0.4726
C320       C    0.0219355250    0.1542252615    0.0607213264          0.4758
H321       H    0.0202221374    0.1054739988    0.0416802139         -0.5195
H322       H   -0.0209747253    0.1350488436   -0.0396444001          0.4781
H323       H   -0.0206411472    0.1850989822   -0.0230774444          0.4733
N324       N   -0.0005960276    0.2243689281    0.0088588420          0.4786
C325       C   -0.0046088881    0.2558172596    0.0200460836          0.4717
C326       C   -0.0149098277    0.2748801535   -0.0074786770          0.4742
N327       N   -0.0243908979    0.3049851513    0.0041594596          0.4626
N328       N   -0.0379004002    0.2950967027    0.0231019513           0.444
N329       N   -0.0210996680    0.2707988021    0.0319884533          0.4539
C330       C   -0.0021898439    0.3296718809   -0.0020225174         -0.5161
H331       H    0.0038305669    0.2769799249   -0.0239673653          -0.504
H332       H   -0.0338886655    0.2635402606   -0.0195668591          0.4628
H333       H    0.0169847695    0.2645093962    0.0296195068         -0.5139
O334       O   -0.0189812626    0.3572756946   -0.0079002800          0.4729
C335       C    0.0155767478    0.3720547576    0.0296427741         -0.5125
C336       C    0.0184143348    0.3373091550    0.0256324043         -0.5095
H337       H    0.0111209504    0.3257648276    0.0465405949          0.4763
H338       H    0.0378843909    0.3827739096    0.0329233552         -0.4951
H339       H    0.0011295612    0.3769431793    0.0494274807          0.4681
H340       H    0.0420054343    0.3307068746    0.0208640085         -0.4883
H341       H    0.0171051009    0.3861366568   -0.0179445050         -0.4928
C342       C    0.0000000000    0.3829349459    0.0000000000         -0.5138
H343       H    0.0113820947    0.3247541463   -0.0226117254         -0.4972
N344       N    0.0340009509    0.1597054774    0.0832732017          0.4773
C281       C   -0.3829349459   -0.0000000000    0.0000000000         -0.5201
C282       C   -0.3758518905   -0.0274741883    0.0115156032          0.4788
C283       C   -0.3466795540   -0.0346666483    0.0182107728           0.476
C284       C   -0.3235416670   -0.0147364232    0.0133055282          0.4745
C285       C   -0.3316683067    0.0129942439    0.0023485157           0.475
C286       C   -0.3604139748    0.0201577264   -0.0041288882          0.4777
N287       N   -0.2953513436   -0.0231163860    0.0194100446          0.4726
C288       C   -0.3457747385   -0.0585057492    0.0273006237          0.4758
H289       H   -0.3945260012   -0.0438039271    0.0150794907         -0.5195
H290       H   -0.3649511564    0.0428923341   -0.0131097383          0.4781
H291       H   -0.3149010178    0.0309173267   -0.0016565949          0.4733
N292       N   -0.2756310719   -0.0058569790    0.0066730897          0.4786
C293       C   -0.2441827404   -0.0109530108    0.0174103094          0.4717
C294       C   -0.2251198465    0.0158197878    0.0052884672          0.4742
N295       N   -0.1950148487    0.0142625726    0.0202187049          0.4626
N296       N   -0.2049032973    0.0103717948    0.0431574600           0.444
N297       N   -0.2292011979   -0.0077798110    0.0375224157          0.4539
C298       C   -0.1703281191    0.0029783293    0.0001246886         -0.5161
H299       H   -0.2230200751    0.0142808779   -0.0196256049          -0.504
H300       H   -0.2364597394    0.0377770160    0.0102078736          0.4628
H301       H   -0.2354906038   -0.0329732342    0.0088636000         -0.5139
O302       O   -0.1427243054    0.0189913178    0.0078760778          0.4729
C303       C   -0.1279452424   -0.0319962320    0.0098777662         -0.5125
C304       C   -0.1626908450   -0.0311565939    0.0050373144         -0.5095
H305       H   -0.1742351724   -0.0408263479    0.0249582016          0.4763
H306       H   -0.1172260904   -0.0500610195   -0.0036150692         -0.4951
H307       H   -0.1230568207   -0.0358221950    0.0340752418          0.4681
H308       H   -0.1692931254   -0.0444233316   -0.0150443001         -0.4883
H309       H   -0.1138633432    0.0006465588   -0.0247824877         -0.4928
C310       C   -0.1170650541   -0.0000000000    0.0000000000         -0.5138
H311       H   -0.1752458537    0.0079919448   -0.0240202212         -0.4972
N312       N   -0.3402945226   -0.0829996821    0.0346632882          0.4773
C249       C    0.1170650541   -0.0000000000    0.0000000000         -0.5201
C250       C    0.1241481095   -0.0169187162    0.0245193226          0.4788
C251       C    0.1533204460   -0.0193620428    0.0340370394           0.476
C252       C    0.1764583330   -0.0052283622    0.0191536805          0.4745
C253       C    0.1683316933    0.0122076852   -0.0050337185           0.475
C254       C    0.1395860252    0.0147441099   -0.0143524519          0.4777
N255       N    0.2046486564   -0.0089901978    0.0288148135          0.4726
C256       C    0.1542252615   -0.0345290038    0.0545526776          0.4758
H257       H    0.1054739988   -0.0287446876    0.0363306758         -0.5195
H258       H    0.1350488436    0.0290399512   -0.0341803861          0.4781
H259       H    0.1850989822    0.0251371149   -0.0180762511          0.4733
N260       N    0.2243689281   -0.0013308277    0.0087785664          0.4786
C261       C    0.2558172596    0.0001718318    0.0205683687          0.4717
C262       C    0.2748801535    0.0161729140   -0.0040829430          0.4742
N263       N    0.3049851513    0.0229174377    0.0093278107          0.4626
N264       N    0.2950967027    0.0320182157    0.0307404351           0.444
N265       N    0.2707988021    0.0136950247    0.0357897113          0.4539
C266       C    0.3296718809    0.0025748888   -0.0015019788         -0.5161
H267       H    0.2769799249    0.0014348105   -0.0242290974          -0.504
H268       H    0.2635402606    0.0373141365   -0.0117880803          0.4628
H269       H    0.2645093962   -0.0229795449    0.0252534769         -0.5139
O270       O    0.3572756946    0.0202393409   -0.0036154992          0.4729
C271       C    0.3720547576   -0.0216097606    0.0255802145         -0.5125
C272       C    0.3373091550   -0.0235144957    0.0210517545         -0.5095
H273       H    0.3257648276   -0.0209076373    0.0430415289          0.4763
H274       H    0.3827739096   -0.0440995341    0.0239667580         -0.4951
H275       H    0.3769431793   -0.0117752676    0.0480176512          0.4681
H276       H    0.3307068746   -0.0455195202    0.0113020637         -0.4883
H277       H    0.3861366568   -0.0128270454   -0.0212145384         -0.4928
C278       C    0.3829349459   -0.0000000000    0.0000000000         -0.5138
H279       H    0.3247541463   -0.0062312947   -0.0245359567         -0.4972
N280       N    0.1597054774   -0.0511792079    0.0739674216          0.4773
C217       C    0.0000000000   -0.0000000000   -0.1170650541         -0.5201
C218       C    0.0135333290    0.0265384465   -0.1241481095          0.4788
C219       C    0.0146986457    0.0362954345   -0.1533204460           0.476
C220       C    0.0026537388    0.0196763035   -0.1764583330          0.4745
C221       C   -0.0114362164   -0.0066014282   -0.1683316933           0.475
C222       C   -0.0127200878   -0.0161734665   -0.1395860252          0.4777
N223       N    0.0051070867    0.0297495345   -0.2046486564          0.4726
C224       C    0.0270241598    0.0586339622   -0.1542252615          0.4758
H225       H    0.0236963247    0.0398077789   -0.1054739988         -0.5195
H226       H   -0.0242729055   -0.0377152969   -0.1350488436          0.4781
H227       H   -0.0225304583   -0.0212368512   -0.1850989822          0.4733
N228       N    0.0001601466    0.0088774255   -0.2243689281          0.4786
C229       C   -0.0028859614    0.0203656216   -0.2558172596          0.4717
C230       C   -0.0154922632   -0.0061825037   -0.2748801535          0.4742
N231       N   -0.0239483605    0.0062203724   -0.3049851513          0.4626
N232       N   -0.0357965689    0.0262439734   -0.2950967027           0.444
N233       N   -0.0183004373    0.0336682511   -0.2707988021          0.4539
C234       C   -0.0023540419   -0.0018287917   -0.3296718809         -0.5161
H235       H    0.0017767087   -0.0242064278   -0.2769799249          -0.504
H236       H   -0.0354311043   -0.0166114560   -0.2635402606          0.4628
H237       H    0.0194441698    0.0280663828   -0.2645093962         -0.5139
O238       O   -0.0195848081   -0.0062560407   -0.3572756946          0.4729
C239       C    0.0180432378    0.0282094079   -0.3720547576         -0.5125
C240       C    0.0205291893    0.0239720726   -0.3373091550         -0.5095
H241       H    0.0150418503    0.0454251610   -0.3257648276          0.4763
H242       H    0.0405491547    0.0295793922   -0.3827739096         -0.4951
H243       H    0.0053324320    0.0491519778   -0.3769431793          0.4681
H244       H    0.0436288247    0.0172130478   -0.3307068746         -0.4883
H245       H    0.0155157020   -0.0193352716   -0.3861366568         -0.4928
C246       C   -0.0000000000    0.0000000000   -0.3829349459         -0.5138
H247       H    0.0094162176   -0.0234984479   -0.3247541463         -0.4972
N248       N    0.0409652829    0.0800770652   -0.1597054774          0.4773
C185       C   -0.0000000000    0.0000000000    0.1170650541         -0.5201
C186       C    0.0051387606    0.0293433685    0.1241481095          0.4788
C187       C    0.0100729698    0.0378410363    0.1533204460           0.476
C188       C    0.0097077977    0.0173192930    0.1764583330          0.4745
C189       C    0.0051705853   -0.0121503476    0.1683316933           0.475
C190       C    0.0004423005   -0.0205714857    0.1395860252          0.4777
N191       N    0.0138028090    0.0268439862    0.2046486564          0.4726
C192       C    0.0136521375    0.0631020276    0.1542252615          0.4758
H193       H    0.0049940856    0.0460568581    0.1054739988         -0.5195
H194       H   -0.0032754169   -0.0447313001    0.1350488436          0.4781
H195       H    0.0052382192   -0.0305153479    0.1850989822          0.4733
N196       N    0.0052087213    0.0071905182    0.2243689281          0.4786
C197       C    0.0145491424    0.0145399371    0.2558172596          0.4717
C198       C    0.0086637450   -0.0142538799    0.2748801535          0.4742
N199       N    0.0228773317   -0.0094257466    0.3049851513          0.4626
N200       N    0.0443828962   -0.0005468200    0.2950967027           0.444
N201       N    0.0348642907    0.0159040362    0.2707988021          0.4539
C202       C    0.0007818076   -0.0028765899    0.3296718809         -0.5161
H203       H   -0.0159716177   -0.0182760846    0.2769799249          -0.504
H204       H    0.0183281286   -0.0345743159    0.2635402606          0.4628
H205       H    0.0013337366    0.0341177187    0.2645093962         -0.5139
O206       O    0.0118900265   -0.0167728955    0.3572756946          0.4729
C207       C    0.0025392480    0.0333898390    0.3720547576         -0.5125
C208       C   -0.0019946495    0.0314980833    0.3373091550         -0.5095
H209       H    0.0152870751    0.0453432227    0.3257648276          0.4763
H210       H   -0.0146224059    0.0480141608    0.3827739096         -0.4951
H211       H    0.0252865845    0.0424845902    0.3769431793          0.4681
H212       H   -0.0245175499    0.0399831603    0.3307068746         -0.4883
H213       H   -0.0240225884   -0.0061241312    0.3861366568         -0.4928
C214       C    0.0000000000    0.0000000000    0.3829349459         -0.5138
H215       H   -0.0216509980   -0.0131177930    0.3247541463         -0.4972
N216       N    0.0154019302    0.0886186850    0.1597054774          0.4773
loop_
_geom_bond_atom_site_label_1
_geom_bond_atom_site_label_2
_geom_bond_distance
_geom_bond_site_symmetry_2
_ccdc_geom_bond_type
Zn1          O5 1.942       .   S
Zn1          O6 1.922       .   S
Zn1         O10 1.922       .   S
Zn1         O17 1.922       .   S
Zn2          O5 1.942       .   S
Zn2          O7 1.922       .   S
Zn2          O9 1.922       .   S
Zn2         O13 1.922       .   S
Zn3          O5 1.942       .   S
Zn3          O8 1.922       .   S
Zn3         O11 1.922       .   S
Zn3         O14 1.922       .   S
Zn4          O5 1.942       .   S
Zn4         O12 1.922       .   S
Zn4         O15 1.922       .   S
Zn4         O16 1.922       .   S
O6          C18 1.304       .   A
O7          C19 1.304       .   A
O8          C20 1.304       .   A
O9          C18 1.304       .   A
O10         C20 1.304       .   A
O11         C19 1.304       .   A
O12         C21 1.304       .   A
O13         C22 1.304       .   A
O14         C21 1.304       .   A
O15         C22 1.304       .   A
O16         C23 1.304       .   A
O17         C23 1.304       .   A
C18        C217 1.540       .   S
C19        C310 1.540       .   S
C20        C345 1.540       .   S
C21        C185 1.540       .   S
C22        C313 1.540       .   S
C23        C249 1.540       .   S
Zn24        O28 1.942       .   S
Zn24        O29 1.922       .   S
Zn24        O33 1.922       .   S
Zn24        O40 1.922       .   S
Zn25        O28 1.942       .   S
Zn25        O30 1.922       .   S
Zn25        O32 1.922       .   S
Zn25        O36 1.922       .   S
Zn26        O28 1.942       .   S
Zn26        O31 1.922       .   S
Zn26        O34 1.922       .   S
Zn26        O37 1.922       .   S
Zn27        O28 1.942       .   S
Zn27        O35 1.922       .   S
Zn27        O38 1.922       .   S
Zn27        O39 1.922       .   S
O29         C41 1.304       .   A
O30         C42 1.304       .   A
O31         C43 1.304       .   A
O32         C41 1.304       .   A
O33         C43 1.304       .   A
O34         C42 1.304       .   A
O35         C44 1.304       .   A
O36         C45 1.304       .   A
O37         C44 1.304       .   A
O38         C45 1.304       .   A
O39         C46 1.304       .   A
O40         C46 1.304       .   A
C41        C214 1.540   1_655   S
C42        C406 1.540       .   S
C43        C441 1.540       .   S
C44        C246 1.540   1_656   S
C45        C473 1.540       .   S
C46        C438 1.540       .   S
Zn47        O51 1.942       .   S
Zn47        O52 1.922       .   S
Zn47        O56 1.922       .   S
Zn47        O63 1.922       .   S
Zn48        O51 1.942       .   S
Zn48        O53 1.922       .   S
Zn48        O55 1.922       .   S
Zn48        O59 1.922       .   S
Zn49        O51 1.942       .   S
Zn49        O54 1.922       .   S
Zn49        O57 1.922       .   S
Zn49        O60 1.922       .   S
Zn50        O51 1.942       .   S
Zn50        O58 1.922       .   S
Zn50        O61 1.922       .   S
Zn50        O62 1.922       .   S
O52         C64 1.304       .   A
O53         C65 1.304       .   A
O54         C66 1.304       .   A
O55         C64 1.304       .   A
O56         C66 1.304       .   A
O57         C65 1.304       .   A
O58         C67 1.304       .   A
O59         C68 1.304       .   A
O60         C67 1.304       .   A
O61         C68 1.304       .   A
O62         C69 1.304       .   A
O63         C69 1.304       .   A
C64        C534 1.540       .   S
C65        C601 1.540       .   S
C66        C374 1.540   1_665   S
C67        C566 1.540       .   S
C68        C342 1.540   1_655   S
C69        C569 1.540       .   S
Zn70        O74 1.942       .   S
Zn70        O75 1.922       .   S
Zn70        O79 1.922       .   S
Zn70        O86 1.922       .   S
Zn71        O74 1.942       .   S
Zn71        O76 1.922       .   S
Zn71        O78 1.922       .   S
Zn71        O82 1.922       .   S
Zn72        O74 1.942       .   S
Zn72        O77 1.922       .   S
Zn72        O80 1.922       .   S
Zn72        O83 1.922       .   S
Zn73        O74 1.942       .   S
Zn73        O81 1.922       .   S
Zn73        O84 1.922       .   S
Zn73        O85 1.922       .   S
O75         C87 1.304       .   A
O76         C88 1.304       .   A
O77         C89 1.304       .   A
O78         C87 1.304       .   A
O79         C89 1.304       .   A
O80         C88 1.304       .   A
O81         C90 1.304       .   A
O82         C91 1.304       .   A
O83         C90 1.304       .   A
O84         C91 1.304       .   A
O85         C92 1.304       .   A
O86         C92 1.304       .   A
C87        C470 1.540       .   S
C88        C633 1.540       .   S
C89        C505 1.540       .   S
C90        C502 1.540   1_565   S
C91        C537 1.540   1_556   S
C92        C694 1.540       .   S
Zn93        O97 1.942       .   S
Zn93        O98 1.922       .   S
Zn93       O102 1.922       .   S
Zn93       O109 1.922       .   S
Zn94        O97 1.942       .   S
Zn94        O99 1.922       .   S
Zn94       O101 1.922       .   S
Zn94       O105 1.922       .   S
Zn95        O97 1.942       .   S
Zn95       O100 1.922       .   S
Zn95       O103 1.922       .   S
Zn95       O106 1.922       .   S
Zn96        O97 1.942       .   S
Zn96       O104 1.922       .   S
Zn96       O107 1.922       .   S
Zn96       O108 1.922       .   S
O98        C110 1.304       .   A
O99        C111 1.304       .   A
O100       C112 1.304       .   A
O101       C110 1.304       .   A
O102       C112 1.304       .   A
O103       C111 1.304       .   A
O104       C113 1.304       .   A
O105       C114 1.304       .   A
O106       C113 1.304       .   A
O107       C114 1.304       .   A
O108       C115 1.304       .   A
O109       C115 1.304       .   A
C110       C278 1.540   1_565   S
C111       C790 1.540       .   S
C112       C697 1.540       .   S
C113       C281 1.540   1_665   S
C114       C758 1.540       .   S
C115       C793 1.540       .   S
Zn116      O120 1.942       .   S
Zn116      O121 1.922       .   S
Zn116      O125 1.922       .   S
Zn116      O132 1.922       .   S
Zn117      O120 1.942       .   S
Zn117      O122 1.922       .   S
Zn117      O124 1.922       .   S
Zn117      O128 1.922       .   S
Zn118      O120 1.942       .   S
Zn118      O123 1.922       .   S
Zn118      O126 1.922       .   S
Zn118      O129 1.922       .   S
Zn119      O120 1.942       .   S
Zn119      O127 1.922       .   S
Zn119      O130 1.922       .   S
Zn119      O131 1.922       .   S
O121       C133 1.304       .   A
O122       C134 1.304       .   A
O123       C135 1.304       .   A
O124       C133 1.304       .   A
O125       C135 1.304       .   A
O126       C134 1.304       .   A
O127       C136 1.304       .   A
O128       C137 1.304       .   A
O129       C136 1.304       .   A
O130       C137 1.304       .   A
O131       C138 1.304       .   A
O132       C138 1.304       .   A
C133       C377 1.540   1_465   S
C134       C825 1.540       .   S
C135       C729 1.540   1_556   S
C136       C409 1.540   1_565   S
C137       C726 1.540       .   S
C138       C857 1.540       .   S
Zn139      O143 1.942       .   S
Zn139      O144 1.922       .   S
Zn139      O148 1.922       .   S
Zn139      O155 1.922       .   S
Zn140      O143 1.942       .   S
Zn140      O145 1.922       .   S
Zn140      O147 1.922       .   S
Zn140      O151 1.922       .   S
Zn141      O143 1.942       .   S
Zn141      O146 1.922       .   S
Zn141      O149 1.922       .   S
Zn141      O152 1.922       .   S
Zn142      O143 1.942       .   S
Zn142      O150 1.922       .   S
Zn142      O153 1.922       .   S
Zn142      O154 1.922       .   S
O144       C156 1.304       .   A
O145       C157 1.304       .   A
O146       C158 1.304       .   A
O147       C156 1.304       .   A
O148       C158 1.304       .   A
O149       C157 1.304       .   A
O150       C159 1.304       .   A
O151       C160 1.304       .   A
O152       C159 1.304       .   A
O153       C160 1.304       .   A
O154       C161 1.304       .   A
O155       C161 1.304       .   A
C156       C598 1.540   1_455   S
C157       C761 1.540   1_545   S
C158       C921 1.540       .   S
C159       C630 1.540       .   S
C160       C889 1.540       .   S
C161       C822 1.540       .   S
Zn162      O166 1.942       .   S
Zn162      O167 1.922       .   S
Zn162      O171 1.922       .   S
Zn162      O178 1.922       .   S
Zn163      O166 1.942       .   S
Zn163      O168 1.922       .   S
Zn163      O170 1.922       .   S
Zn163      O174 1.922       .   S
Zn164      O166 1.942       .   S
Zn164      O169 1.922       .   S
Zn164      O172 1.922       .   S
Zn164      O175 1.922       .   S
Zn165      O166 1.942       .   S
Zn165      O173 1.922       .   S
Zn165      O176 1.922       .   S
Zn165      O177 1.922       .   S
O167       C179 1.304       .   A
O168       C180 1.304       .   A
O169       C181 1.304       .   A
O170       C179 1.304       .   A
O171       C181 1.304       .   A
O172       C180 1.304       .   A
O173       C182 1.304       .   A
O174       C183 1.304       .   A
O175       C182 1.304       .   A
O176       C183 1.304       .   A
O177       C184 1.304       .   A
O178       C184 1.304       .   A
C179       C854 1.540   1_545   S
C180       C665 1.540       .   S
C181       C918 1.540       .   S
C182       C886 1.540       .   S
C183       C950 1.540   1_556   S
C184       C662 1.540   1_455   S
C921       C922 0.028       .   A
C921       C926 0.028       .   A
C922       C923 0.028       .   A
C922       H929 0.023       .   A
C923       C924 0.028       .   A
C923       C928 0.023       .   A
C924       C925 0.028       .   A
C924       N927 0.027       .   A
C925       C926 0.028       .   A
C925       H931 0.023       .   A
C926       H930 0.023       .   A
N927       N932 0.027       .   A
C928       N952 0.024       .   A
N932       C933 0.031       .   A
C933       C934 0.032       .   A
C933       N937 0.023       .   A
C933       H941 0.023       .   A
C934       N935 0.031       .   A
C934       H939 0.023       .   A
C934       H940 0.023       .   A
N935       N936 0.023       .   A
N935       C938 0.031       .   A
N936       N937 0.028       .   A
C938       O942 0.030       .   A
C938       C944 0.032       .   A
C938       H951 0.023       .   A
O942       C950 0.030       .   A
C943       C944 0.032       .   A
C943       H946 0.023       .   A
C943       H947 0.023       .   A
C943       C950 0.032       .   A
C944       H945 0.023       .   A
C944       H948 0.023       .   A
H949       C950 0.023       .   A
C889       C890 0.028       .   A
C889       C894 0.028       .   A
C890       C891 0.028       .   A
C890       H897 0.023       .   A
C891       C892 0.028       .   A
C891       C896 0.023       .   A
C892       C893 0.028       .   A
C892       N895 0.027       .   A
C893       C894 0.028       .   A
C893       H899 0.023       .   A
C894       H898 0.023       .   A
N895       N900 0.027       .   A
C896       N920 0.024       .   A
N900       C901 0.031       .   A
C901       C902 0.032       .   A
C901       N905 0.023       .   A
C901       H909 0.023       .   A
C902       N903 0.031       .   A
C902       H907 0.023       .   A
C902       H908 0.023       .   A
N903       N904 0.023       .   A
N903       C906 0.031       .   A
N904       N905 0.028       .   A
C906       O910 0.030       .   A
C906       C912 0.032       .   A
C906       H919 0.023       .   A
O910       C918 0.030       .   A
C911       C912 0.032       .   A
C911       H914 0.023       .   A
C911       H915 0.023       .   A
C911       C918 0.032       .   A
C912       H913 0.023       .   A
C912       H916 0.023       .   A
H917       C918 0.023       .   A
C857       C858 0.028       .   A
C857       C862 0.028       .   A
C858       C859 0.028       .   A
C858       H865 0.023       .   A
C859       C860 0.028       .   A
C859       C864 0.023       .   A
C860       C861 0.028       .   A
C860       N863 0.027       .   A
C861       C862 0.028       .   A
C861       H867 0.023       .   A
C862       H866 0.023       .   A
N863       N868 0.027       .   A
C864       N888 0.024       .   A
N868       C869 0.031       .   A
C869       C870 0.032       .   A
C869       N873 0.023       .   A
C869       H877 0.023       .   A
C870       N871 0.031       .   A
C870       H875 0.023       .   A
C870       H876 0.023       .   A
N871       N872 0.023       .   A
N871       C874 0.031       .   A
N872       N873 0.028       .   A
C874       O878 0.030       .   A
C874       C880 0.032       .   A
C874       H887 0.023       .   A
O878       C886 0.030       .   A
C879       C880 0.032       .   A
C879       H882 0.023       .   A
C879       H883 0.023       .   A
C879       C886 0.032       .   A
C880       H881 0.023       .   A
C880       H884 0.023       .   A
H885       C886 0.023       .   A
C825       C826 0.028       .   A
C825       C830 0.028       .   A
C826       C827 0.028       .   A
C826       H833 0.023       .   A
C827       C828 0.028       .   A
C827       C832 0.023       .   A
C828       C829 0.028       .   A
C828       N831 0.027       .   A
C829       C830 0.028       .   A
C829       H835 0.023       .   A
C830       H834 0.023       .   A
N831       N836 0.027       .   A
C832       N856 0.024       .   A
N836       C837 0.031       .   A
C837       C838 0.032       .   A
C837       N841 0.023       .   A
C837       H845 0.023       .   A
C838       N839 0.031       .   A
C838       H843 0.023       .   A
C838       H844 0.023       .   A
N839       N840 0.023       .   A
N839       C842 0.031       .   A
N840       N841 0.028       .   A
C842       O846 0.030       .   A
C842       C848 0.032       .   A
C842       H855 0.023       .   A
O846       C854 0.030       .   A
C847       C848 0.032       .   A
C847       H850 0.023       .   A
C847       H851 0.023       .   A
C847       C854 0.032       .   A
C848       H849 0.023       .   A
C848       H852 0.023       .   A
H853       C854 0.023       .   A
C793       C794 0.028       .   A
C793       C798 0.028       .   A
C794       C795 0.028       .   A
C794       H801 0.023       .   A
C795       C796 0.028       .   A
C795       C800 0.023       .   A
C796       C797 0.028       .   A
C796       N799 0.027       .   A
C797       C798 0.028       .   A
C797       H803 0.023       .   A
C798       H802 0.023       .   A
N799       N804 0.027       .   A
C800       N824 0.024       .   A
N804       C805 0.031       .   A
C805       C806 0.032       .   A
C805       N809 0.023       .   A
C805       H813 0.023       .   A
C806       N807 0.031       .   A
C806       H811 0.023       .   A
C806       H812 0.023       .   A
N807       N808 0.023       .   A
N807       C810 0.031       .   A
N808       N809 0.028       .   A
C810       O814 0.030       .   A
C810       C816 0.032       .   A
C810       H823 0.023       .   A
O814       C822 0.030       .   A
C815       C816 0.032       .   A
C815       H818 0.023       .   A
C815       H819 0.023       .   A
C815       C822 0.032       .   A
C816       H817 0.023       .   A
C816       H820 0.023       .   A
H821       C822 0.023       .   A
C761       C762 0.028       .   A
C761       C766 0.028       .   A
C762       C763 0.028       .   A
C762       H769 0.023       .   A
C763       C764 0.028       .   A
C763       C768 0.023       .   A
C764       C765 0.028       .   A
C764       N767 0.027       .   A
C765       C766 0.028       .   A
C765       H771 0.023       .   A
C766       H770 0.023       .   A
N767       N772 0.027       .   A
C768       N792 0.024       .   A
N772       C773 0.031       .   A
C773       C774 0.032       .   A
C773       N777 0.023       .   A
C773       H781 0.023       .   A
C774       N775 0.031       .   A
C774       H779 0.023       .   A
C774       H780 0.023       .   A
N775       N776 0.023       .   A
N775       C778 0.031       .   A
N776       N777 0.028       .   A
C778       O782 0.030       .   A
C778       C784 0.032       .   A
C778       H791 0.023       .   A
O782       C790 0.030       .   A
C783       C784 0.032       .   A
C783       H786 0.023       .   A
C783       H787 0.023       .   A
C783       C790 0.032       .   A
C784       H785 0.023       .   A
C784       H788 0.023       .   A
H789       C790 0.023       .   A
C729       C730 0.028       .   A
C729       C734 0.028       .   A
C730       C731 0.028       .   A
C730       H737 0.023       .   A
C731       C732 0.028       .   A
C731       C736 0.023       .   A
C732       C733 0.028       .   A
C732       N735 0.027       .   A
C733       C734 0.028       .   A
C733       H739 0.023       .   A
C734       H738 0.023       .   A
N735       N740 0.027       .   A
C736       N760 0.024       .   A
N740       C741 0.031       .   A
C741       C742 0.032       .   A
C741       N745 0.023       .   A
C741       H749 0.023       .   A
C742       N743 0.031       .   A
C742       H747 0.023       .   A
C742       H748 0.023       .   A
N743       N744 0.023       .   A
N743       C746 0.031       .   A
N744       N745 0.028       .   A
C746       O750 0.030       .   A
C746       C752 0.032       .   A
C746       H759 0.023       .   A
O750       C758 0.030       .   A
C751       C752 0.032       .   A
C751       H754 0.023       .   A
C751       H755 0.023       .   A
C751       C758 0.032       .   A
C752       H753 0.023       .   A
C752       H756 0.023       .   A
H757       C758 0.023       .   A
C697       C698 0.028       .   A
C697       C702 0.028       .   A
C698       C699 0.028       .   A
C698       H705 0.023       .   A
C699       C700 0.028       .   A
C699       C704 0.023       .   A
C700       C701 0.028       .   A
C700       N703 0.027       .   A
C701       C702 0.028       .   A
C701       H707 0.023       .   A
C702       H706 0.023       .   A
N703       N708 0.027       .   A
C704       N728 0.024       .   A
N708       C709 0.031       .   A
C709       C710 0.032       .   A
C709       N713 0.023       .   A
C709       H717 0.023       .   A
C710       N711 0.031       .   A
C710       H715 0.023       .   A
C710       H716 0.023       .   A
N711       N712 0.023       .   A
N711       C714 0.031       .   A
N712       N713 0.028       .   A
C714       O718 0.030       .   A
C714       C720 0.032       .   A
C714       H727 0.023       .   A
O718       C726 0.030       .   A
C719       C720 0.032       .   A
C719       H722 0.023       .   A
C719       H723 0.023       .   A
C719       C726 0.032       .   A
C720       H721 0.023       .   A
C720       H724 0.023       .   A
H725       C726 0.023       .   A
C665       C666 0.028       .   A
C665       C670 0.028       .   A
C666       C667 0.028       .   A
C666       H673 0.023       .   A
C667       C668 0.028       .   A
C667       C672 0.023       .   A
C668       C669 0.028       .   A
C668       N671 0.027       .   A
C669       C670 0.028       .   A
C669       H675 0.023       .   A
C670       H674 0.023       .   A
N671       N676 0.027       .   A
C672       N696 0.024       .   A
N676       C677 0.031       .   A
C677       C678 0.032       .   A
C677       N681 0.023       .   A
C677       H685 0.023       .   A
C678       N679 0.031       .   A
C678       H683 0.023       .   A
C678       H684 0.023       .   A
N679       N680 0.023       .   A
N679       C682 0.031       .   A
N680       N681 0.028       .   A
C682       O686 0.030       .   A
C682       C688 0.032       .   A
C682       H695 0.023       .   A
O686       C694 0.030       .   A
C687       C688 0.032       .   A
C687       H690 0.023       .   A
C687       H691 0.023       .   A
C687       C694 0.032       .   A
C688       H689 0.023       .   A
C688       H692 0.023       .   A
H693       C694 0.023       .   A
C633       C634 0.028       .   A
C633       C638 0.028       .   A
C634       C635 0.028       .   A
C634       H641 0.023       .   A
C635       C636 0.028       .   A
C635       C640 0.023       .   A
C636       C637 0.028       .   A
C636       N639 0.027       .   A
C637       C638 0.028       .   A
C637       H643 0.023       .   A
C638       H642 0.023       .   A
N639       N644 0.027       .   A
C640       N664 0.024       .   A
N644       C645 0.031       .   A
C645       C646 0.032       .   A
C645       N649 0.023       .   A
C645       H653 0.023       .   A
C646       N647 0.031       .   A
C646       H651 0.023       .   A
C646       H652 0.023       .   A
N647       N648 0.023       .   A
N647       C650 0.031       .   A
N648       N649 0.028       .   A
C650       O654 0.030       .   A
C650       C656 0.032       .   A
C650       H663 0.023       .   A
O654       C662 0.030       .   A
C655       C656 0.032       .   A
C655       H658 0.023       .   A
C655       H659 0.023       .   A
C655       C662 0.032       .   A
C656       H657 0.023       .   A
C656       H660 0.023       .   A
H661       C662 0.023       .   A
C601       C602 0.028       .   A
C601       C606 0.028       .   A
C602       C603 0.028       .   A
C602       H609 0.023       .   A
C603       C604 0.028       .   A
C603       C608 0.023       .   A
C604       C605 0.028       .   A
C604       N607 0.027       .   A
C605       C606 0.028       .   A
C605       H611 0.023       .   A
C606       H610 0.023       .   A
N607       N612 0.027       .   A
C608       N632 0.024       .   A
N612       C613 0.031       .   A
C613       C614 0.032       .   A
C613       N617 0.023       .   A
C613       H621 0.023       .   A
C614       N615 0.031       .   A
C614       H619 0.023       .   A
C614       H620 0.023       .   A
N615       N616 0.023       .   A
N615       C618 0.031       .   A
N616       N617 0.028       .   A
C618       O622 0.030       .   A
C618       C624 0.032       .   A
C618       H631 0.023       .   A
O622       C630 0.030       .   A
C623       C624 0.032       .   A
C623       H626 0.023       .   A
C623       H627 0.023       .   A
C623       C630 0.032       .   A
C624       H625 0.023       .   A
C624       H628 0.023       .   A
H629       C630 0.023       .   A
C569       C570 0.028       .   A
C569       C574 0.028       .   A
C570       C571 0.028       .   A
C570       H577 0.023       .   A
C571       C572 0.028       .   A
C571       C576 0.023       .   A
C572       C573 0.028       .   A
C572       N575 0.027       .   A
C573       C574 0.028       .   A
C573       H579 0.023       .   A
C574       H578 0.023       .   A
N575       N580 0.027       .   A
C576       N600 0.024       .   A
N580       C581 0.031       .   A
C581       C582 0.032       .   A
C581       N585 0.023       .   A
C581       H589 0.023       .   A
C582       N583 0.031       .   A
C582       H587 0.023       .   A
C582       H588 0.023       .   A
N583       N584 0.023       .   A
N583       C586 0.031       .   A
N584       N585 0.028       .   A
C586       O590 0.030       .   A
C586       C592 0.032       .   A
C586       H599 0.023       .   A
O590       C598 0.030       .   A
C591       C592 0.032       .   A
C591       H594 0.023       .   A
C591       H595 0.023       .   A
C591       C598 0.032       .   A
C592       H593 0.023       .   A
C592       H596 0.023       .   A
H597       C598 0.023       .   A
C537       C538 0.028       .   A
C537       C542 0.028       .   A
C538       C539 0.028       .   A
C538       H545 0.023       .   A
C539       C540 0.028       .   A
C539       C544 0.023       .   A
C540       C541 0.028       .   A
C540       N543 0.027       .   A
C541       C542 0.028       .   A
C541       H547 0.023       .   A
C542       H546 0.023       .   A
N543       N548 0.027       .   A
C544       N568 0.024       .   A
N548       C549 0.031       .   A
C549       C550 0.032       .   A
C549       N553 0.023       .   A
C549       H557 0.023       .   A
C550       N551 0.031       .   A
C550       H555 0.023       .   A
C550       H556 0.023       .   A
N551       N552 0.023       .   A
N551       C554 0.031       .   A
N552       N553 0.028       .   A
C554       O558 0.030       .   A
C554       C560 0.032       .   A
C554       H567 0.023       .   A
O558       C566 0.030       .   A
C559       C560 0.032       .   A
C559       H562 0.023       .   A
C559       H563 0.023       .   A
C559       C566 0.032       .   A
C560       H561 0.023       .   A
C560       H564 0.023       .   A
H565       C566 0.023       .   A
C505       C506 0.028       .   A
C505       C510 0.028       .   A
C506       C507 0.028       .   A
C506       H513 0.023       .   A
C507       C508 0.028       .   A
C507       C512 0.023       .   A
C508       C509 0.028       .   A
C508       N511 0.027       .   A
C509       C510 0.028       .   A
C509       H515 0.023       .   A
C510       H514 0.023       .   A
N511       N516 0.027       .   A
C512       N536 0.024       .   A
N516       C517 0.031       .   A
C517       C518 0.032       .   A
C517       N521 0.023       .   A
C517       H525 0.023       .   A
C518       N519 0.031       .   A
C518       H523 0.023       .   A
C518       H524 0.023       .   A
N519       N520 0.023       .   A
N519       C522 0.031       .   A
N520       N521 0.028       .   A
C522       O526 0.030       .   A
C522       C528 0.032       .   A
C522       H535 0.023       .   A
O526       C534 0.030       .   A
C527       C528 0.032       .   A
C527       H530 0.023       .   A
C527       H531 0.023       .   A
C527       C534 0.032       .   A
C528       H529 0.023       .   A
C528       H532 0.023       .   A
H533       C534 0.023       .   A
C473       C474 0.028       .   A
C473       C478 0.028       .   A
C474       C475 0.028       .   A
C474       H481 0.023       .   A
C475       C476 0.028       .   A
C475       C480 0.023       .   A
C476       C477 0.028       .   A
C476       N479 0.027       .   A
C477       C478 0.028       .   A
C477       H483 0.023       .   A
C478       H482 0.023       .   A
N479       N484 0.027       .   A
C480       N504 0.024       .   A
N484       C485 0.031       .   A
C485       C486 0.032       .   A
C485       N489 0.023       .   A
C485       H493 0.023       .   A
C486       N487 0.031       .   A
C486       H491 0.023       .   A
C486       H492 0.023       .   A
N487       N488 0.023       .   A
N487       C490 0.031       .   A
N488       N489 0.028       .   A
C490       O494 0.030       .   A
C490       C496 0.032       .   A
C490       H503 0.023       .   A
O494       C502 0.030       .   A
C495       C496 0.032       .   A
C495       H498 0.023       .   A
C495       H499 0.023       .   A
C495       C502 0.032       .   A
C496       H497 0.023       .   A
C496       H500 0.023       .   A
H501       C502 0.023       .   A
C441       C442 0.028       .   A
C441       C446 0.028       .   A
C442       C443 0.028       .   A
C442       H449 0.023       .   A
C443       C444 0.028       .   A
C443       C448 0.023       .   A
C444       C445 0.028       .   A
C444       N447 0.027       .   A
C445       C446 0.028       .   A
C445       H451 0.023       .   A
C446       H450 0.023       .   A
N447       N452 0.027       .   A
C448       N472 0.024       .   A
N452       C453 0.031       .   A
C453       C454 0.032       .   A
C453       N457 0.023       .   A
C453       H461 0.023       .   A
C454       N455 0.031       .   A
C454       H459 0.023       .   A
C454       H460 0.023       .   A
N455       N456 0.023       .   A
N455       C458 0.031       .   A
N456       N457 0.028       .   A
C458       O462 0.030       .   A
C458       C464 0.032       .   A
C458       H471 0.023       .   A
O462       C470 0.030       .   A
C463       C464 0.032       .   A
C463       H466 0.023       .   A
C463       H467 0.023       .   A
C463       C470 0.032       .   A
C464       H465 0.023       .   A
C464       H468 0.023       .   A
H469       C470 0.023       .   A
C409       C410 0.028       .   A
C409       C414 0.028       .   A
C410       C411 0.028       .   A
C410       H417 0.023       .   A
C411       C412 0.028       .   A
C411       C416 0.023       .   A
C412       C413 0.028       .   A
C412       N415 0.027       .   A
C413       C414 0.028       .   A
C413       H419 0.023       .   A
C414       H418 0.023       .   A
N415       N420 0.027       .   A
C416       N440 0.024       .   A
N420       C421 0.031       .   A
C421       C422 0.032       .   A
C421       N425 0.023       .   A
C421       H429 0.023       .   A
C422       N423 0.031       .   A
C422       H427 0.023       .   A
C422       H428 0.023       .   A
N423       N424 0.023       .   A
N423       C426 0.031       .   A
N424       N425 0.028       .   A
C426       O430 0.030       .   A
C426       C432 0.032       .   A
C426       H439 0.023       .   A
O430       C438 0.030       .   A
C431       C432 0.032       .   A
C431       H434 0.023       .   A
C431       H435 0.023       .   A
C431       C438 0.032       .   A
C432       H433 0.023       .   A
C432       H436 0.023       .   A
H437       C438 0.023       .   A
C377       C378 0.028       .   A
C377       C382 0.028       .   A
C378       C379 0.028       .   A
C378       H385 0.023       .   A
C379       C380 0.028       .   A
C379       C384 0.023       .   A
C380       C381 0.028       .   A
C380       N383 0.027       .   A
C381       C382 0.028       .   A
C381       H387 0.023       .   A
C382       H386 0.023       .   A
N383       N388 0.027       .   A
C384       N408 0.024       .   A
N388       C389 0.031       .   A
C389       C390 0.032       .   A
C389       N393 0.023       .   A
C389       H397 0.023       .   A
C390       N391 0.031       .   A
C390       H395 0.023       .   A
C390       H396 0.023       .   A
N391       N392 0.023       .   A
N391       C394 0.031       .   A
N392       N393 0.028       .   A
C394       O398 0.030       .   A
C394       C400 0.032       .   A
C394       H407 0.023       .   A
O398       C406 0.030       .   A
C399       C400 0.032       .   A
C399       H402 0.023       .   A
C399       H403 0.023       .   A
C399       C406 0.032       .   A
C400       H401 0.023       .   A
C400       H404 0.023       .   A
H405       C406 0.023       .   A
C345       C346 0.028       .   A
C345       C350 0.028       .   A
C346       C347 0.028       .   A
C346       H353 0.023       .   A
C347       C348 0.028       .   A
C347       C352 0.023       .   A
C348       C349 0.028       .   A
C348       N351 0.027       .   A
C349       C350 0.028       .   A
C349       H355 0.023       .   A
C350       H354 0.023       .   A
N351       N356 0.027       .   A
C352       N376 0.024       .   A
N356       C357 0.031       .   A
C357       C358 0.032       .   A
C357       N361 0.023       .   A
C357       H365 0.023       .   A
C358       N359 0.031       .   A
C358       H363 0.023       .   A
C358       H364 0.023       .   A
N359       N360 0.023       .   A
N359       C362 0.031       .   A
N360       N361 0.028       .   A
C362       O366 0.030       .   A
C362       C368 0.032       .   A
C362       H375 0.023       .   A
O366       C374 0.030       .   A
C367       C368 0.032       .   A
C367       H370 0.023       .   A
C367       H371 0.023       .   A
C367       C374 0.032       .   A
C368       H369 0.023       .   A
C368       H372 0.023       .   A
H373       C374 0.023       .   A
C313       C314 0.028       .   A
C313       C318 0.028       .   A
C314       C315 0.028       .   A
C314       H321 0.023       .   A
C315       C316 0.028       .   A
C315       C320 0.023       .   A
C316       C317 0.028       .   A
C316       N319 0.027       .   A
C317       C318 0.028       .   A
C317       H323 0.023       .   A
C318       H322 0.023       .   A
N319       N324 0.027       .   A
C320       N344 0.024       .   A
N324       C325 0.031       .   A
C325       C326 0.032       .   A
C325       N329 0.023       .   A
C325       H333 0.023       .   A
C326       N327 0.031       .   A
C326       H331 0.023       .   A
C326       H332 0.023       .   A
N327       N328 0.023       .   A
N327       C330 0.031       .   A
N328       N329 0.028       .   A
C330       O334 0.030       .   A
C330       C336 0.032       .   A
C330       H343 0.023       .   A
O334       C342 0.030       .   A
C335       C336 0.032       .   A
C335       H338 0.023       .   A
C335       H339 0.023       .   A
C335       C342 0.032       .   A
C336       H337 0.023       .   A
C336       H340 0.023       .   A
H341       C342 0.023       .   A
C281       C282 0.028       .   A
C281       C286 0.028       .   A
C282       C283 0.028       .   A
C282       H289 0.023       .   A
C283       C284 0.028       .   A
C283       C288 0.023       .   A
C284       C285 0.028       .   A
C284       N287 0.027       .   A
C285       C286 0.028       .   A
C285       H291 0.023       .   A
C286       H290 0.023       .   A
N287       N292 0.027       .   A
C288       N312 0.024       .   A
N292       C293 0.031       .   A
C293       C294 0.032       .   A
C293       N297 0.023       .   A
C293       H301 0.023       .   A
C294       N295 0.031       .   A
C294       H299 0.023       .   A
C294       H300 0.023       .   A
N295       N296 0.023       .   A
N295       C298 0.031       .   A
N296       N297 0.028       .   A
C298       O302 0.030       .   A
C298       C304 0.032       .   A
C298       H311 0.023       .   A
O302       C310 0.030       .   A
C303       C304 0.032       .   A
C303       H306 0.023       .   A
C303       H307 0.023       .   A
C303       C310 0.032       .   A
C304       H305 0.023       .   A
C304       H308 0.023       .   A
H309       C310 0.023       .   A
C249       C250 0.028       .   A
C249       C254 0.028       .   A
C250       C251 0.028       .   A
C250       H257 0.023       .   A
C251       C252 0.028       .   A
C251       C256 0.023       .   A
C252       C253 0.028       .   A
C252       N255 0.027       .   A
C253       C254 0.028       .   A
C253       H259 0.023       .   A
C254       H258 0.023       .   A
N255       N260 0.027       .   A
C256       N280 0.024       .   A
N260       C261 0.031       .   A
C261       C262 0.032       .   A
C261       N265 0.023       .   A
C261       H269 0.023       .   A
C262       N263 0.031       .   A
C262       H267 0.023       .   A
C262       H268 0.023       .   A
N263       N264 0.023       .   A
N263       C266 0.031       .   A
N264       N265 0.028       .   A
C266       O270 0.030       .   A
C266       C272 0.032       .   A
C266       H279 0.023       .   A
O270       C278 0.030       .   A
C271       C272 0.032       .   A
C271       H274 0.023       .   A
C271       H275 0.023       .   A
C271       C278 0.032       .   A
C272       H273 0.023       .   A
C272       H276 0.023       .   A
H277       C278 0.023       .   A
C217       C218 0.028       .   A
C217       C222 0.028       .   A
C218       C219 0.028       .   A
C218       H225 0.023       .   A
C219       C220 0.028       .   A
C219       C224 0.023       .   A
C220       C221 0.028       .   A
C220       N223 0.027       .   A
C221       C222 0.028       .   A
C221       H227 0.023       .   A
C222       H226 0.023       .   A
N223       N228 0.027       .   A
C224       N248 0.024       .   A
N228       C229 0.031       .   A
C229       C230 0.032       .   A
C229       N233 0.023       .   A
C229       H237 0.023       .   A
C230       N231 0.031       .   A
C230       H235 0.023       .   A
C230       H236 0.023       .   A
N231       N232 0.023       .   A
N231       C234 0.031       .   A
N232       N233 0.028       .   A
C234       O238 0.030       .   A
C234       C240 0.032       .   A
C234       H247 0.023       .   A
O238       C246 0.030       .   A
C239       C240 0.032       .   A
C239       H242 0.023       .   A
C239       H243 0.023       .   A
C239       C246 0.032       .   A
C240       H241 0.023       .   A
C240       H244 0.023       .   A
H245       C246 0.023       .   A
C185       C186 0.028       .   A
C185       C190 0.028       .   A
C186       C187 0.028       .   A
C186       H193 0.023       .   A
C187       C188 0.028       .   A
C187       C192 0.023       .   A
C188       C189 0.028       .   A
C188       N191 0.027       .   A
C189       C190 0.028       .   A
C189       H195 0.023       .   A
C190       H194 0.023       .   A
N191       N196 0.027       .   A
C192       N216 0.024       .   A
N196       C197 0.031       .   A
C197       C198 0.032       .   A
C197       N201 0.023       .   A
C197       H205 0.023       .   A
C198       N199 0.031       .   A
C198       H203 0.023       .   A
C198       H204 0.023       .   A
N199       N200 0.023       .   A
N199       C202 0.031       .   A
N200       N201 0.028       .   A
C202       O206 0.030       .   A
C202       C208 0.032       .   A
C202       H215 0.023       .   A
O206       C214 0.030       .   A
C207       C208 0.032       .   A
C207       H210 0.023       .   A
C207       H211 0.023       .   A
C207       C214 0.032       .   A
C208       H209 0.023       .   A
C208       H212 0.023       .   A
H213       C214 0.023       .   A
