data_pcu_v1-6c_Zn_1_Ch_1-48_fer_tobacco
_audit_creation_date              2021-04-07
_audit_creation_method            'tobacco_3.0'
_symmetry_space_group_name_H-M    'P1'
_symmetry_Int_Tables_number       1
_symmetry_cell_setting            triclinic
loop_
_symmetry_equiv_pos_as_xyz
  x,y,z
_cell_length_a                    37.39987945693983
_cell_length_b                    37.39987945693983
_cell_length_c                    37.39987945693983
_cell_angle_alpha                 90.0
_cell_angle_beta                  90.0
_cell_angle_gamma                 90.0
loop_
_atom_site_label
_atom_site_type_symbol
_atom_site_fract_x
_atom_site_fract_y
_atom_site_fract_z
_atom_site_charge
Zn1       Zn   -0.0299787062   -0.0299787062    0.0299787062          1.4972
Zn2       Zn    0.0299787062    0.0299787062    0.0299787062          1.4936
Zn3       Zn    0.0299787062   -0.0299787062   -0.0299787062          1.4911
Zn4       Zn   -0.0299787062    0.0299787062   -0.0299787062          1.4948
O5         O    0.0000000000    0.0000000000    0.0000000000         -2.2459
O6         O   -0.0220321566   -0.0220321566    0.0801232529         -1.1522
O7         O    0.0801232529    0.0220321566    0.0220321566         -1.1504
O8         O    0.0220321566   -0.0801232529   -0.0220321566         -1.1456
O9         O    0.0220321566    0.0220321566    0.0801232529         -1.1523
O10        O   -0.0220321566   -0.0801232529    0.0220321566         -1.1483
O11        O    0.0801232529   -0.0220321566   -0.0220321566         -1.1542
O12        O   -0.0220321566    0.0220321566   -0.0801232529         -1.1481
O13        O    0.0220321566    0.0801232529    0.0220321566         -1.1556
O14        O    0.0220321566   -0.0220321566   -0.0801232529         -1.1495
O15        O   -0.0220321566    0.0801232529   -0.0220321566         -1.1542
O16        O   -0.0801232529    0.0220321566   -0.0220321566         -1.1533
O17        O   -0.0801232529   -0.0220321566    0.0220321566         -1.1512
C18        C   -0.0000000000   -0.0000000000    0.0957971002          0.3667
C19        C    0.0957971002   -0.0000000000   -0.0000000000          0.3716
C20        C   -0.0000000000   -0.0957971002    0.0000000000          0.3612
C21        C    0.0000000000    0.0000000000   -0.0957971002           0.365
C22        C    0.0000000000    0.0957971002   -0.0000000000          0.3763
C23        C   -0.0957971002    0.0000000000    0.0000000000          0.3668
Zn24      Zn    0.9700212938   -0.0299787062    0.4700212938          1.4972
Zn25      Zn    1.0299787062   -0.0299787062    0.5299787062          1.4936
Zn26      Zn    1.0299787062    0.0299787062    0.4700212938          1.4911
Zn27      Zn    0.9700212938    0.0299787062    0.5299787062          1.4948
O28        O    1.0000000000    0.0000000000    0.5000000000         -2.2459
O29        O    0.9779678434   -0.0801232529    0.4779678434         -1.1522
O30        O    1.0801232529   -0.0220321566    0.5220321566         -1.1504
O31        O    1.0220321566    0.0220321566    0.4198767471         -1.1456
O32        O    1.0220321566   -0.0801232529    0.5220321566         -1.1523
O33        O    0.9779678434   -0.0220321566    0.4198767471         -1.1483
O34        O    1.0801232529    0.0220321566    0.4779678434         -1.1542
O35        O    0.9779678434    0.0801232529    0.5220321566         -1.1481
O36        O    1.0220321566   -0.0220321566    0.5801232529         -1.1556
O37        O    1.0220321566    0.0801232529    0.4779678434         -1.1495
O38        O    0.9779678434    0.0220321566    0.5801232529         -1.1542
O39        O    0.9198767471    0.0220321566    0.5220321566         -1.1533
O40        O    0.9198767471   -0.0220321566    0.4779678434         -1.1512
C41        C    1.0000000000   -0.0957971002    0.5000000000          0.3667
C42        C    1.0957971002    0.0000000000    0.5000000000          0.3716
C43        C    1.0000000000    0.0000000000    0.4042028998          0.3612
C44        C    1.0000000000    0.0957971002    0.5000000000           0.365
C45        C    1.0000000000    0.0000000000    0.5957971002          0.3763
C46        C    0.9042028998    0.0000000000    0.5000000000          0.3668
Zn47      Zn    1.0299787062    0.4700212938   -0.0299787062          1.4972
Zn48      Zn    0.9700212938    0.4700212938    0.0299787062          1.4936
Zn49      Zn    1.0299787062    0.5299787062    0.0299787062          1.4911
Zn50      Zn    0.9700212938    0.5299787062   -0.0299787062          1.4948
O51        O    1.0000000000    0.5000000000    0.0000000000         -2.2459
O52        O    1.0220321566    0.4198767471   -0.0220321566         -1.1522
O53        O    0.9779678434    0.4779678434    0.0801232529         -1.1504
O54        O    1.0801232529    0.5220321566    0.0220321566         -1.1456
O55        O    0.9779678434    0.4198767471    0.0220321566         -1.1523
O56        O    1.0801232529    0.4779678434   -0.0220321566         -1.1483
O57        O    1.0220321566    0.5220321566    0.0801232529         -1.1542
O58        O    0.9779678434    0.5801232529   -0.0220321566         -1.1481
O59        O    0.9198767471    0.4779678434    0.0220321566         -1.1556
O60        O    1.0220321566    0.5801232529    0.0220321566         -1.1495
O61        O    0.9198767471    0.5220321566   -0.0220321566         -1.1542
O62        O    0.9779678434    0.5220321566   -0.0801232529         -1.1533
O63        O    1.0220321566    0.4779678434   -0.0801232529         -1.1512
C64        C    1.0000000000    0.4042028998    0.0000000000          0.3667
C65        C    1.0000000000    0.5000000000    0.0957971002          0.3716
C66        C    1.0957971002    0.5000000000    0.0000000000          0.3612
C67        C    1.0000000000    0.5957971002    0.0000000000           0.365
C68        C    0.9042028998    0.5000000000    0.0000000000          0.3763
C69        C    1.0000000000    0.5000000000   -0.0957971002          0.3668
Zn70      Zn    0.9700212938    0.4700212938    0.5299787062          1.4972
Zn71      Zn    1.0299787062    0.4700212938    0.4700212938          1.4936
Zn72      Zn    0.9700212938    0.5299787062    0.4700212938          1.4911
Zn73      Zn    1.0299787062    0.5299787062    0.5299787062          1.4948
O74        O    1.0000000000    0.5000000000    0.5000000000         -2.2459
O75        O    0.9779678434    0.4198767471    0.5220321566         -1.1522
O76        O    1.0220321566    0.4779678434    0.4198767471         -1.1504
O77        O    0.9198767471    0.5220321566    0.4779678434         -1.1456
O78        O    1.0220321566    0.4198767471    0.4779678434         -1.1523
O79        O    0.9198767471    0.4779678434    0.5220321566         -1.1483
O80        O    0.9779678434    0.5220321566    0.4198767471         -1.1542
O81        O    1.0220321566    0.5801232529    0.5220321566         -1.1481
O82        O    1.0801232529    0.4779678434    0.4779678434         -1.1556
O83        O    0.9779678434    0.5801232529    0.4779678434         -1.1495
O84        O    1.0801232529    0.5220321566    0.5220321566         -1.1542
O85        O    1.0220321566    0.5220321566    0.5801232529         -1.1533
O86        O    0.9779678434    0.4779678434    0.5801232529         -1.1512
C87        C    1.0000000000    0.4042028998    0.5000000000          0.3667
C88        C    1.0000000000    0.5000000000    0.4042028998          0.3716
C89        C    0.9042028998    0.5000000000    0.5000000000          0.3612
C90        C    1.0000000000    0.5957971002    0.5000000000           0.365
C91        C    1.0957971002    0.5000000000    0.5000000000          0.3763
C92        C    1.0000000000    0.5000000000    0.5957971002          0.3668
Zn93      Zn    0.4700212938    0.9700212938   -0.0299787062          1.4972
Zn94      Zn    0.4700212938    1.0299787062    0.0299787062          1.4936
Zn95      Zn    0.5299787062    0.9700212938    0.0299787062          1.4911
Zn96      Zn    0.5299787062    1.0299787062   -0.0299787062          1.4948
O97        O    0.5000000000    1.0000000000    0.0000000000         -2.2459
O98        O    0.4198767471    0.9779678434   -0.0220321566         -1.1522
O99        O    0.4779678434    1.0220321566    0.0801232529         -1.1504
O100       O    0.5220321566    0.9198767471    0.0220321566         -1.1456
O101       O    0.4198767471    1.0220321566    0.0220321566         -1.1523
O102       O    0.4779678434    0.9198767471   -0.0220321566         -1.1483
O103       O    0.5220321566    0.9779678434    0.0801232529         -1.1542
O104       O    0.5801232529    1.0220321566   -0.0220321566         -1.1481
O105       O    0.4779678434    1.0801232529    0.0220321566         -1.1556
O106       O    0.5801232529    0.9779678434    0.0220321566         -1.1495
O107       O    0.5220321566    1.0801232529   -0.0220321566         -1.1542
O108       O    0.5220321566    1.0220321566   -0.0801232529         -1.1533
O109       O    0.4779678434    0.9779678434   -0.0801232529         -1.1512
C110       C    0.4042028998    1.0000000000    0.0000000000          0.3667
C111       C    0.5000000000    1.0000000000    0.0957971002          0.3716
C112       C    0.5000000000    0.9042028998    0.0000000000          0.3612
C113       C    0.5957971002    1.0000000000    0.0000000000           0.365
C114       C    0.5000000000    1.0957971002    0.0000000000          0.3763
C115       C    0.5000000000    1.0000000000   -0.0957971002          0.3668
Zn116     Zn    0.5299787062    0.9700212938    0.5299787062          1.4972
Zn117     Zn    0.4700212938    0.9700212938    0.4700212938          1.4936
Zn118     Zn    0.4700212938    1.0299787062    0.5299787062          1.4911
Zn119     Zn    0.5299787062    1.0299787062    0.4700212938          1.4948
O120       O    0.5000000000    1.0000000000    0.5000000000         -2.2459
O121       O    0.5220321566    0.9198767471    0.5220321566         -1.1522
O122       O    0.4198767471    0.9779678434    0.4779678434         -1.1504
O123       O    0.4779678434    1.0220321566    0.5801232529         -1.1456
O124       O    0.4779678434    0.9198767471    0.4779678434         -1.1523
O125       O    0.5220321566    0.9779678434    0.5801232529         -1.1483
O126       O    0.4198767471    1.0220321566    0.5220321566         -1.1542
O127       O    0.5220321566    1.0801232529    0.4779678434         -1.1481
O128       O    0.4779678434    0.9779678434    0.4198767471         -1.1556
O129       O    0.4779678434    1.0801232529    0.5220321566         -1.1495
O130       O    0.5220321566    1.0220321566    0.4198767471         -1.1542
O131       O    0.5801232529    1.0220321566    0.4779678434         -1.1533
O132       O    0.5801232529    0.9779678434    0.5220321566         -1.1512
C133       C    0.5000000000    0.9042028998    0.5000000000          0.3667
C134       C    0.4042028998    1.0000000000    0.5000000000          0.3716
C135       C    0.5000000000    1.0000000000    0.5957971002          0.3612
C136       C    0.5000000000    1.0957971002    0.5000000000           0.365
C137       C    0.5000000000    1.0000000000    0.4042028998          0.3763
C138       C    0.5957971002    1.0000000000    0.5000000000          0.3668
Zn139     Zn    0.5299787062    0.5299787062    0.0299787062          1.4972
Zn140     Zn    0.4700212938    0.4700212938    0.0299787062          1.4936
Zn141     Zn    0.4700212938    0.5299787062   -0.0299787062          1.4911
Zn142     Zn    0.5299787062    0.4700212938   -0.0299787062          1.4948
O143       O    0.5000000000    0.5000000000    0.0000000000         -2.2459
O144       O    0.5220321566    0.5220321566    0.0801232529         -1.1522
O145       O    0.4198767471    0.4779678434    0.0220321566         -1.1504
O146       O    0.4779678434    0.5801232529   -0.0220321566         -1.1456
O147       O    0.4779678434    0.4779678434    0.0801232529         -1.1523
O148       O    0.5220321566    0.5801232529    0.0220321566         -1.1483
O149       O    0.4198767471    0.5220321566   -0.0220321566         -1.1542
O150       O    0.5220321566    0.4779678434   -0.0801232529         -1.1481
O151       O    0.4779678434    0.4198767471    0.0220321566         -1.1556
O152       O    0.4779678434    0.5220321566   -0.0801232529         -1.1495
O153       O    0.5220321566    0.4198767471   -0.0220321566         -1.1542
O154       O    0.5801232529    0.4779678434   -0.0220321566         -1.1533
O155       O    0.5801232529    0.5220321566    0.0220321566         -1.1512
C156       C    0.5000000000    0.5000000000    0.0957971002          0.3667
C157       C    0.4042028998    0.5000000000    0.0000000000          0.3716
C158       C    0.5000000000    0.5957971002    0.0000000000          0.3612
C159       C    0.5000000000    0.5000000000   -0.0957971002           0.365
C160       C    0.5000000000    0.4042028998    0.0000000000          0.3763
C161       C    0.5957971002    0.5000000000    0.0000000000          0.3668
Zn162     Zn    0.4700212938    0.4700212938    0.4700212938          1.4972
Zn163     Zn    0.5299787062    0.4700212938    0.5299787062          1.4936
Zn164     Zn    0.5299787062    0.5299787062    0.4700212938          1.4911
Zn165     Zn    0.4700212938    0.5299787062    0.5299787062          1.4948
O166       O    0.5000000000    0.5000000000    0.5000000000         -2.2459
O167       O    0.4779678434    0.4198767471    0.4779678434         -1.1522
O168       O    0.5801232529    0.4779678434    0.5220321566         -1.1504
O169       O    0.5220321566    0.5220321566    0.4198767471         -1.1456
O170       O    0.5220321566    0.4198767471    0.5220321566         -1.1523
O171       O    0.4779678434    0.4779678434    0.4198767471         -1.1483
O172       O    0.5801232529    0.5220321566    0.4779678434         -1.1542
O173       O    0.4779678434    0.5801232529    0.5220321566         -1.1481
O174       O    0.5220321566    0.4779678434    0.5801232529         -1.1556
O175       O    0.5220321566    0.5801232529    0.4779678434         -1.1495
O176       O    0.4779678434    0.5220321566    0.5801232529         -1.1542
O177       O    0.4198767471    0.5220321566    0.5220321566         -1.1533
O178       O    0.4198767471    0.4779678434    0.4779678434         -1.1512
C179       C    0.5000000000    0.4042028998    0.5000000000          0.3667
C180       C    0.5957971002    0.5000000000    0.5000000000          0.3716
C181       C    0.5000000000    0.5000000000    0.4042028998          0.3612
C182       C    0.5000000000    0.5957971002    0.5000000000           0.365
C183       C    0.5000000000    0.5000000000    0.5957971002          0.3763
C184       C    0.4042028998    0.5000000000    0.5000000000          0.3668
C714       C    0.5000000000    0.5000000000   -0.1369737035          0.5914
C715       C    0.5286453308    0.4979783477   -0.1582088341         -0.4068
C716       C    0.5255909834    0.4954054722   -0.1936771348         -0.4044
C717       C    0.4931316052    0.4950063333   -0.2097316239         -0.4041
C718       C    0.4641607583    0.4961467150   -0.1880761402         -0.4051
C719       C    0.4679013098    0.4990415169   -0.1525029208          0.5922
N720       N    0.4886092126    0.4918479759   -0.2444267447         -0.4013
F721       F    0.5563483956    0.4919785743   -0.2121469173         -0.4012
H722       H    0.5554611402    0.4979814379   -0.1469380383         -0.4067
H723       H    0.4440467081    0.5005915568   -0.1359662023          0.5908
C724       C    0.4260383041    0.4962598038   -0.2026382847         -0.4053
N725       N    0.5079298741    0.5143843185   -0.2614805589          0.5772
C726       C    0.5189095958    0.5032834757   -0.2982639908          0.5877
C727       C    0.4877213480    0.5014246842   -0.3254002561          0.5893
N728       N    0.5000000000    0.5000000000   -0.3630262965          0.5905
N729       N    0.5278290861    0.5061665367   -0.3554033177          0.5847
N730       N    0.5368400101    0.5094872781   -0.3207933112          0.5817
H731       H    0.4697453621    0.5243437773   -0.3221571731          0.5675
H732       H    0.4721077142    0.4773214076   -0.3197787014         -0.3877
H733       H    0.5347166297    0.4784814581   -0.2971695805         -0.3887
H734       H    0.4243386670    0.5063117534   -0.2300248573           0.585
H735       H    0.4087938961    0.5133737252   -0.1864515994          0.5784
H736       H    0.4148864849    0.4692770486   -0.2022050270         -0.3796
C691       C    0.5000000000    0.5000000000    0.1369737035          0.5914
C692       C    0.5286453308    0.5020216523    0.1582088341         -0.4068
C693       C    0.5255909834    0.5045945278    0.1936771348         -0.4044
C694       C    0.4931316052    0.5049936667    0.2097316239         -0.4041
C695       C    0.4641607583    0.5038532850    0.1880761402         -0.4051
C696       C    0.4679013098    0.5009584831    0.1525029208          0.5922
N697       N    0.4886092126    0.5081520241    0.2444267447         -0.4013
F698       F    0.5563483956    0.5080214257    0.2121469173         -0.4012
H699       H    0.5554611402    0.5020185621    0.1469380383         -0.4067
H700       H    0.4440467081    0.4994084432    0.1359662023          0.5908
C701       C    0.4260383041    0.5037401962    0.2026382847         -0.4053
N702       N    0.5079298741    0.4856156815    0.2614805589          0.5772
C703       C    0.5189095958    0.4967165243    0.2982639908          0.5877
C704       C    0.4877213480    0.4985753158    0.3254002561          0.5893
N705       N    0.5000000000    0.5000000000    0.3630262965          0.5905
N706       N    0.5278290861    0.4938334633    0.3554033177          0.5847
N707       N    0.5368400101    0.4905127219    0.3207933112          0.5817
H708       H    0.4697453621    0.4756562227    0.3221571731          0.5675
H709       H    0.4721077142    0.5226785924    0.3197787014         -0.3877
H710       H    0.5347166297    0.5215185419    0.2971695805         -0.3887
H711       H    0.4243386670    0.4936882466    0.2300248573           0.585
H712       H    0.4087938961    0.4866262748    0.1864515994          0.5784
H713       H    0.4148864849    0.5307229514    0.2022050270         -0.3796
C668       C    0.5000000000    0.8630262965    0.5000000000          0.5914
C669       C    0.5022965462    0.8417911659    0.4713753965         -0.4068
C670       C    0.5048399823    0.8063228652    0.4744543019         -0.4044
C671       C    0.5049275020    0.7902683761    0.5069160161         -0.4041
C672       C    0.5035090609    0.8119238598    0.5358745808         -0.4051
C673       C    0.5006503006    0.8474970792    0.5321064123          0.5922
N674       N    0.5080423002    0.7555732553    0.5114685196         -0.4013
F675       F    0.5085619846    0.7878530827    0.4437312043         -0.4012
H676       H    0.5025508802    0.8530619617    0.4445607930         -0.4067
H677       H    0.4988713348    0.8640337977    0.5559450349          0.5908
C678       C    0.5030300126    0.7973617153    0.5739941927         -0.4053
N679       N    0.4856924688    0.7385194411    0.4919324059          0.5772
C680       C    0.4968982023    0.7017360092    0.4810597551          0.5877
C681       C    0.4984575099    0.6745997439    0.5122644097          0.5893
N682       N    0.5000000000    0.6369737035    0.5000000000          0.5905
N683       N    0.4941008987    0.6445966823    0.4721129992          0.5847
N684       N    0.4908668127    0.6792066888    0.4630706123          0.5817
H685       H    0.4753669086    0.6778428269    0.5300195505          0.5675
H686       H    0.5224097894    0.6802212986    0.5281087086         -0.3877
H687       H    0.5218508201    0.7028304195    0.4654915418         -0.3887
H688       H    0.4929622102    0.7699751427    0.5755972556           0.585
H689       H    0.4857513384    0.8135484006    0.5910735173          0.5784
H690       H    0.5299044703    0.7977949730    0.5854045247         -0.3796
C645       C    0.5000000000    1.1369737035    0.5000000000          0.5914
C646       C    0.4713546692    1.1582088341    0.5020216523         -0.4068
C647       C    0.4744090166    1.1936771348    0.5045945278         -0.4044
C648       C    0.5068683948    1.2097316239    0.5049936667         -0.4041
C649       C    0.5358392417    1.1880761402    0.5038532850         -0.4051
C650       C    0.5320986902    1.1525029208    0.5009584831          0.5922
N651       N    0.5113907874    1.2444267447    0.5081520241         -0.4013
F652       F    0.4436516044    1.2121469173    0.5080214257         -0.4012
H653       H    0.4445388598    1.1469380383    0.5020185621         -0.4067
H654       H    0.5559532919    1.1359662023    0.4994084432          0.5908
C655       C    0.5739616959    1.2026382847    0.5037401962         -0.4053
N656       N    0.4920701259    1.2614805589    0.4856156815          0.5772
C657       C    0.4810904042    1.2982639908    0.4967165243          0.5877
C658       C    0.5122786520    1.3254002561    0.4985753158          0.5893
N659       N    0.5000000000    1.3630262965    0.5000000000          0.5905
N660       N    0.4721709139    1.3554033177    0.4938334633          0.5847
N661       N    0.4631599899    1.3207933112    0.4905127219          0.5817
H662       H    0.5302546379    1.3221571731    0.4756562227          0.5675
H663       H    0.5278922858    1.3197787014    0.5226785924         -0.3877
H664       H    0.4652833703    1.2971695805    0.5215185419         -0.3887
H665       H    0.5756613330    1.2300248573    0.4936882466           0.585
H666       H    0.5912061039    1.1864515994    0.4866262748          0.5784
H667       H    0.5851135151    1.2022050270    0.5307229514         -0.3796
C622       C    0.5000000000    0.8630262965    0.0000000000          0.5914
C623       C    0.4872805490    0.8417911659    0.0257460214         -0.4068
C624       C    0.4860560409    0.8063228652    0.0219447972         -0.4044
C625       C    0.4979794488    0.7902683761   -0.0082479651         -0.4041
C626       C    0.5100065492    0.8119238598   -0.0346290056         -0.4051
C627       C    0.5112691296    0.8474970792   -0.0300707719          0.5922
N628       N    0.4967690381    0.7555732553   -0.0136296155         -0.4013
F629       F    0.4712361413    0.7878530827    0.0491133932         -0.4012
H630       H    0.4771278904    0.8530619617    0.0505655937         -0.4067
H631       H    0.5217377812    0.8640337977   -0.0515615136          0.5908
C632       C    0.5245487163    0.7973617153   -0.0698690350         -0.4053
N633       N    0.5103097322    0.7385194411    0.0127867488          0.5772
C634       C    0.4958775760    0.7017360092    0.0187445898          0.5877
C635       C    0.5059686606    0.6745997439   -0.0108245143          0.5893
N636       N    0.5000000000    0.6369737035    0.0000000000          0.5905
N637       N    0.4951679542    0.6445966823    0.0280915564          0.5847
N638       N    0.4948287844    0.6792066888    0.0376889018          0.5817
H639       H    0.5339883528    0.6778428269   -0.0187817593          0.5675
H640       H    0.4895738448    0.6802212986   -0.0344033930         -0.3877
H641       H    0.4669366234    0.7028304195    0.0239813501         -0.3887
H642       H    0.5344956106    0.7699751427   -0.0676352600           0.585
H643       H    0.5469185832    0.8135484006   -0.0793476935          0.5784
H644       H    0.5037991522    0.7977949730   -0.0904089411         -0.3796
C599       C    0.5000000000    1.1369737035    0.0000000000          0.5914
C600       C    0.5081867189    1.1582088341   -0.0275248921         -0.4068
C601       C    0.5047036732    1.1936771348   -0.0255711473         -0.4044
C602       C    0.4929089609    1.2097316239    0.0046721215         -0.4041
C603       C    0.4837827902    1.1880761402    0.0321916318         -0.4051
C604       C    0.4878086228    1.1525029208    0.0297088358          0.5922
N605       N    0.4883613292    1.2444267447    0.0077940283         -0.4013
F606       F    0.5123181604    1.2121469173   -0.0555675074         -0.4012
H607       H    0.5176249728    1.1469380383   -0.0526248325         -0.4067
H608       H    0.4808661066    1.1359662023    0.0525834093          0.5908
C609       C    0.4704749509    1.2026382847    0.0679160733         -0.4053
N610       N    0.5162546802    1.2614805589   -0.0023615453          0.5772
C611       C    0.5097270039    1.2982639908   -0.0165450725          0.5877
C612       C    0.4970132365    1.3254002561    0.0119947599          0.5893
N613       N    0.5000000000    1.3630262965    0.0000000000          0.5905
N614       N    0.5155640982    1.3554033177   -0.0238797625          0.5847
N615       N    0.5218430563    1.3207933112   -0.0311460379          0.5817
H616       H    0.5121417327    1.3221571731    0.0368855111          0.5675
H617       H    0.4689574998    1.3197787014    0.0181290193         -0.3877
H618       H    0.4920728265    1.2971695805   -0.0400680914         -0.3887
H619       H    0.4792860807    1.2300248573    0.0730438847           0.585
H620       H    0.4804269084    1.1864515994    0.0900794316          0.5784
H621       H    0.4412937945    1.2022050270    0.0688606682         -0.3796
C576       C    0.5000000000    1.0000000000   -0.3630262965          0.5914
C577       C    0.4979964306    1.0286466012   -0.3417911659         -0.4068
C578       C    0.4954216276    1.0255938786   -0.3063228652         -0.4044
C579       C    0.4950019986    0.9931347588   -0.2902683761         -0.4041
C580       C    0.4961240920    0.9641631978   -0.3119238598         -0.4051
C581       C    0.4990212546    0.9679019212   -0.3474970792          0.5922
N582       N    0.4918407870    0.9886143609   -0.2555732553         -0.4013
F583       F    0.4920141463    1.0563534479   -0.2878530827         -0.4012
H584       H    0.4980164486    1.0554624033   -0.3530619617         -0.4067
H585       H    0.5005562358    0.9440463458   -0.3640337977          0.5908
C586       C    0.4962131157    0.9260406799   -0.2973617153         -0.4053
N587       N    0.5143893215    1.0079207923   -0.2385194411          0.5772
C588       C    0.5032954118    1.0189075193   -0.2017360092          0.5877
C589       C    0.5014169329    0.9877204511   -0.1745997439          0.5893
N590       N    0.5000000000    1.0000000000   -0.1369737035          0.5905
N591       N    0.5061841028    1.0278251879   -0.1445966823          0.5847
N592       N    0.5095105317    1.0368340138   -0.1792066888          0.5817
H593       H    0.5243246739    0.9697300010   -0.1778428269          0.5675
H594       H    0.4773038049    0.9721220358   -0.1802212986         -0.3877
H595       H    0.4785033775    1.0347302065   -0.2028304195         -0.3887
H596       H    0.5062639904    0.9243346977   -0.2699751427           0.585
H597       H    0.5133161480    0.9087854720   -0.3135484006          0.5784
H598       H    0.4692233262    0.9149058960   -0.2977949730         -0.3796
C553       C    0.5000000000    1.0000000000    0.1369737035          0.5914
C554       C    0.5286453308    1.0020216523    0.1582088341         -0.4068
C555       C    0.5255909834    1.0045945278    0.1936771348         -0.4044
C556       C    0.4931316052    1.0049936667    0.2097316239         -0.4041
C557       C    0.4641607583    1.0038532850    0.1880761402         -0.4051
C558       C    0.4679013098    1.0009584831    0.1525029208          0.5922
N559       N    0.4886092126    1.0081520241    0.2444267447         -0.4013
F560       F    0.5563483956    1.0080214257    0.2121469173         -0.4012
H561       H    0.5554611402    1.0020185621    0.1469380383         -0.4067
H562       H    0.4440467081    0.9994084432    0.1359662023          0.5908
C563       C    0.4260383041    1.0037401962    0.2026382847         -0.4053
N564       N    0.5079298741    0.9856156815    0.2614805589          0.5772
C565       C    0.5189095958    0.9967165243    0.2982639908          0.5877
C566       C    0.4877213480    0.9985753158    0.3254002561          0.5893
N567       N    0.5000000000    1.0000000000    0.3630262965          0.5905
N568       N    0.5278290861    0.9938334633    0.3554033177          0.5847
N569       N    0.5368400101    0.9905127219    0.3207933112          0.5817
H570       H    0.4697453621    0.9756562227    0.3221571731          0.5675
H571       H    0.4721077142    1.0226785924    0.3197787014         -0.3877
H572       H    0.5347166297    1.0215185419    0.2971695805         -0.3887
H573       H    0.4243386670    0.9936882466    0.2300248573           0.585
H574       H    0.4087938961    0.9866262748    0.1864515994          0.5784
H575       H    0.4148864849    1.0307229514    0.2022050270         -0.3796
C530       C    0.8630262965    0.5000000000    0.5000000000          0.5914
C531       C    0.8417911659    0.4753405742    0.5147158000         -0.4068
C532       C    0.8063228652    0.4792267351    0.5156358429         -0.4044
C533       C    0.7902683761    0.5083819302    0.5013619105         -0.4041
C534       C    0.8119238598    0.5337291424    0.4872860704         -0.4051
C535       C    0.8474970792    0.5290853321    0.4863879444          0.5922
N536       N    0.7555732553    0.5138424521    0.5021429081         -0.4013
F537       F    0.7878530827    0.4533153101    0.5325580203         -0.4012
H538       H    0.8530619617    0.4514016942    0.5267995771         -0.4067
H539       H    0.8640337977    0.5496808174    0.4742524333          0.5908
C540       C    0.7973617153    0.5677086837    0.4700024055         -0.4053
N541       N    0.7385194411    0.4864379317    0.4907338343          0.5772
C542       C    0.7017360092    0.4816401569    0.5055919754          0.5877
C543       C    0.6745997439    0.5103185615    0.4931939505          0.5893
N544       N    0.6369737035    0.5000000000    0.5000000000          0.5905
N545       N    0.6445966823    0.4723785904    0.5070386035          0.5847
N546       N    0.6792066888    0.4628381312    0.5081357417          0.5817
H547       H    0.6778428269    0.5160348720    0.4646327060          0.5675
H548       H    0.6802212986    0.5351202096    0.5076726159         -0.3877
H549       H    0.7028304195    0.4787086698    0.5348564382         -0.3887
H550       H    0.7699751427    0.5646952298    0.4602633320           0.585
H551       H    0.8135484006    0.5753884733    0.4469529641          0.5784
H552       H    0.7977949730    0.5898252849    0.4890625236         -0.3796
C507       C    1.1369737035    0.5000000000    0.5000000000          0.5914
C508       C    1.1582088341    0.5265682955    0.4891019393         -0.4068
C509       C    1.1936771348    0.5249726333    0.4927628939         -0.4044
C510       C    1.2097316239    0.4960603703    0.5075226905         -0.4041
C511       C    1.1880761402    0.4695913708    0.5193549561         -0.4051
C512       C    1.1525029208    0.4716591563    0.5151010324          0.5922
N513       N    1.2444267447    0.4934088552    0.5123597065         -0.4013
F514       F    1.2121469173    0.5540572302    0.4821870603         -0.4012
H515       H    1.1469380383    0.5505986452    0.4772011016         -0.4067
H516       H    1.1359662023    0.4495934562    0.5242961139          0.5908
C517       C    1.2026382847    0.4353767141    0.5361683903         -0.4053
N518       N    1.2614805589    0.5007243084    0.4835906460          0.5772
C519       C    1.2982639908    0.5154894862    0.4886673108          0.5877
C520       C    1.3254002561    0.4883640235    0.5041712195          0.5893
N521       N    1.3630262965    0.5000000000    0.5000000000          0.5905
N522       N    1.3554033177    0.5222037285    0.4821260344          0.5847
N523       N    1.3207933112    0.5288057146    0.4751519500          0.5817
H524       H    1.3221571731    0.4620852416    0.4916075213          0.5675
H525       H    1.3197787014    0.4850659670    0.5326997373         -0.3877
H526       H    1.2971695805    0.5406599487    0.5038807988         -0.3887
H527       H    1.2300248573    0.4293935277    0.5279141830           0.585
H528       H    1.1864515994    0.4123292873    0.5284825571          0.5784
H529       H    1.2022050270    0.4373548480    0.5652977421         -0.3796
C484       C    0.8630262965    0.5000000000    0.0000000000          0.5914
C485       C    0.8417911659    0.4820742655    0.0224345736         -0.4068
C486       C    0.8063228652    0.4860361175    0.0219321249         -0.4044
C487       C    0.7902683761    0.5083267014   -0.0016666127         -0.4041
C488       C    0.8119238598    0.5271210802   -0.0237433373         -0.4051
C489       C    0.8474970792    0.5224574704   -0.0229544467          0.5922
N490       N    0.7555732553    0.5137139566   -0.0028518290         -0.4013
F491       F    0.7878530827    0.4677124244    0.0468721390         -0.4012
H492       H    0.8530619617    0.4638994529    0.0421516685         -0.4067
H493       H    0.8640337977    0.5374834267   -0.0415465226          0.5908
C494       C    0.7973617153    0.5528727478   -0.0518535830         -0.4053
N495       N    0.7385194411    0.4840484751   -0.0039166791          0.5772
C496       C    0.7017360092    0.4847708170    0.0116801547          0.5877
C497       C    0.6745997439    0.5072733467   -0.0099946710          0.5893
N498       N    0.6369737035    0.5000000000    0.0000000000          0.5905
N499       N    0.6445966823    0.4766061774    0.0162853698          0.5847
N500       N    0.6792066888    0.4680577237    0.0206612142          0.5817
H501       H    0.6778428269    0.5026016025   -0.0387452483          0.5675
H502       H    0.6802212986    0.5355789050   -0.0051419528         -0.3877
H503       H    0.7028304195    0.4922970383    0.0401117989         -0.3887
H504       H    0.7699751427    0.5466327881   -0.0599154289           0.585
H505       H    0.8135484006    0.5519741005   -0.0761321403          0.5784
H506       H    0.7977949730    0.5802720674   -0.0417684735         -0.3796
C461       C    1.1369737035    0.5000000000    0.0000000000          0.5914
C462       C    1.1582088341    0.5271693189   -0.0092989334         -0.4068
C463       C    1.1936771348    0.5253587872   -0.0057393406         -0.4044
C464       C    1.2097316239    0.4956200163    0.0072751149         -0.4041
C465       C    1.1880761402    0.4684942667    0.0175125048         -0.4051
C466       C    1.1525029208    0.4708113462    0.0133890661          0.5922
N467       N    1.2444267447    0.4926855674    0.0119459035         -0.4013
F468       F    1.2121469173    0.5550207941   -0.0145669892         -0.4012
H469       H    1.1469380383    0.5518648115   -0.0197497846         -0.4067
H470       H    1.1359662023    0.4482379203    0.0212557738          0.5908
C471       C    1.2026382847    0.4333403684    0.0322616652         -0.4053
N472       N    1.2614805589    0.5016987838   -0.0163372475          0.5772
C473       C    1.2982639908    0.5161359582   -0.0103915773          0.5877
C474       C    1.3254002561    0.4881365784    0.0034719230          0.5893
N475       N    1.3630262965    0.5000000000    0.0000000000          0.5905
N476       N    1.3554033177    0.5232272866   -0.0165220267          0.5847
N477       N    1.3207933112    0.5302322936   -0.0230911934          0.5817
H478       H    1.3221571731    0.4626513783   -0.0106321710          0.5675
H479       H    1.3197787014    0.4831479533    0.0317538451         -0.3877
H480       H    1.2971695805    0.5403572345    0.0062917131         -0.3887
H481       H    1.2300248573    0.4278585930    0.0236662829           0.585
H482       H    1.1864515994    0.4107907507    0.0232189524          0.5784
H483       H    1.2022050270    0.4335828697    0.0614570988         -0.3796
C438       C    1.0000000000    0.5000000000   -0.1369737035          0.5914
C439       C    1.0286453308    0.4979783477   -0.1582088341         -0.4068
C440       C    1.0255909834    0.4954054722   -0.1936771348         -0.4044
C441       C    0.9931316052    0.4950063333   -0.2097316239         -0.4041
C442       C    0.9641607583    0.4961467150   -0.1880761402         -0.4051
C443       C    0.9679013098    0.4990415169   -0.1525029208          0.5922
N444       N    0.9886092126    0.4918479759   -0.2444267447         -0.4013
F445       F    1.0563483956    0.4919785743   -0.2121469173         -0.4012
H446       H    1.0554611402    0.4979814379   -0.1469380383         -0.4067
H447       H    0.9440467081    0.5005915568   -0.1359662023          0.5908
C448       C    0.9260383041    0.4962598038   -0.2026382847         -0.4053
N449       N    1.0079298741    0.5143843185   -0.2614805589          0.5772
C450       C    1.0189095958    0.5032834757   -0.2982639908          0.5877
C451       C    0.9877213480    0.5014246842   -0.3254002561          0.5893
N452       N    1.0000000000    0.5000000000   -0.3630262965          0.5905
N453       N    1.0278290861    0.5061665367   -0.3554033177          0.5847
N454       N    1.0368400101    0.5094872781   -0.3207933112          0.5817
H455       H    0.9697453621    0.5243437773   -0.3221571731          0.5675
H456       H    0.9721077142    0.4773214076   -0.3197787014         -0.3877
H457       H    1.0347166297    0.4784814581   -0.2971695805         -0.3887
H458       H    0.9243386670    0.5063117534   -0.2300248573           0.585
H459       H    0.9087938961    0.5133737252   -0.1864515994          0.5784
H460       H    0.9148864849    0.4692770486   -0.2022050270         -0.3796
C415       C    1.0000000000    0.5000000000    0.1369737035          0.5914
C416       C    0.9713546692    0.4979783477    0.1582088341         -0.4068
C417       C    0.9744090166    0.4954054722    0.1936771348         -0.4044
C418       C    1.0068683948    0.4950063333    0.2097316239         -0.4041
C419       C    1.0358392417    0.4961467150    0.1880761402         -0.4051
C420       C    1.0320986902    0.4990415169    0.1525029208          0.5922
N421       N    1.0113907874    0.4918479759    0.2444267447         -0.4013
F422       F    0.9436516044    0.4919785743    0.2121469173         -0.4012
H423       H    0.9445388598    0.4979814379    0.1469380383         -0.4067
H424       H    1.0559532919    0.5005915568    0.1359662023          0.5908
C425       C    1.0739616959    0.4962598038    0.2026382847         -0.4053
N426       N    0.9920701259    0.5143843185    0.2614805589          0.5772
C427       C    0.9810904042    0.5032834757    0.2982639908          0.5877
C428       C    1.0122786520    0.5014246842    0.3254002561          0.5893
N429       N    1.0000000000    0.5000000000    0.3630262965          0.5905
N430       N    0.9721709139    0.5061665367    0.3554033177          0.5847
N431       N    0.9631599899    0.5094872781    0.3207933112          0.5817
H432       H    1.0302546379    0.5243437773    0.3221571731          0.5675
H433       H    1.0278922858    0.4773214076    0.3197787014         -0.3877
H434       H    0.9652833703    0.4784814581    0.2971695805         -0.3887
H435       H    1.0756613330    0.5063117534    0.2300248573           0.585
H436       H    1.0912061039    0.5133737252    0.1864515994          0.5784
H437       H    1.0851135151    0.4692770486    0.2022050270         -0.3796
C392       C    1.0000000000   -0.1369737035    0.5000000000          0.5914
C393       C    1.0286453308   -0.1582088341    0.5020216523         -0.4068
C394       C    1.0255909834   -0.1936771348    0.5045945278         -0.4044
C395       C    0.9931316052   -0.2097316239    0.5049936667         -0.4041
C396       C    0.9641607583   -0.1880761402    0.5038532850         -0.4051
C397       C    0.9679013098   -0.1525029208    0.5009584831          0.5922
N398       N    0.9886092126   -0.2444267447    0.5081520241         -0.4013
F399       F    1.0563483956   -0.2121469173    0.5080214257         -0.4012
H400       H    1.0554611402   -0.1469380383    0.5020185621         -0.4067
H401       H    0.9440467081   -0.1359662023    0.4994084432          0.5908
C402       C    0.9260383041   -0.2026382847    0.5037401962         -0.4053
N403       N    1.0079298741   -0.2614805589    0.4856156815          0.5772
C404       C    1.0189095958   -0.2982639908    0.4967165243          0.5877
C405       C    0.9877213480   -0.3254002561    0.4985753158          0.5893
N406       N    1.0000000000   -0.3630262965    0.5000000000          0.5905
N407       N    1.0278290861   -0.3554033177    0.4938334633          0.5847
N408       N    1.0368400101   -0.3207933112    0.4905127219          0.5817
H409       H    0.9697453621   -0.3221571731    0.4756562227          0.5675
H410       H    0.9721077142   -0.3197787014    0.5226785924         -0.3877
H411       H    1.0347166297   -0.2971695805    0.5215185419         -0.3887
H412       H    0.9243386670   -0.2300248573    0.4936882466           0.585
H413       H    0.9087938961   -0.1864515994    0.4866262748          0.5784
H414       H    0.9148864849   -0.2022050270    0.5307229514         -0.3796
C369       C    1.0000000000    0.3630262965    0.5000000000          0.5914
C370       C    0.9993638423    0.3417911659    0.5287095342         -0.4068
C371       C    0.9966464890    0.3063228652    0.5257829805         -0.4044
C372       C    0.9946805182    0.2902683761    0.4933807351         -0.4041
C373       C    0.9944207157    0.3119238598    0.4643886164         -0.4051
C374       C    0.9974927532    0.3474970792    0.4679850298          0.5922
N375       N    0.9913074814    0.2555732553    0.4890161184         -0.4013
F376       F    0.9947087065    0.2878530827    0.5566699847         -0.4012
H377       H    1.0006617273    0.3530619617    0.5554939166         -0.4067
H378       H    0.9978891683    0.3640337977    0.4440834085          0.5908
C379       C    0.9926929341    0.2973617153    0.4263051676         -0.4053
N380       N    1.0147504338    0.2385194411    0.5072260795          0.5772
C381       C    1.0041926936    0.2017360092    0.5187289975          0.5877
C382       C    1.0008301491    0.1745997439    0.4876668790          0.5893
N383       N    1.0000000000    0.1369737035    0.5000000000          0.5905
N384       N    1.0075030684    0.1445966823    0.5274988758          0.5847
N385       N    1.0112550279    0.1792066888    0.5363389479          0.5817
H386       H    1.0228545410    0.1778428269    0.4686052144          0.5675
H387       H    0.9760010839    0.1802212986    0.4732352809         -0.3877
H388       H    0.9801828458    0.2028304195    0.5357151568         -0.3887
H389       H    1.0026510924    0.2699751427    0.4241221557           0.585
H390       H    1.0089542496    0.3135484006    0.4082545296          0.5784
H391       H    0.9652031871    0.2977949730    0.4164692152         -0.3796
C346       C    0.8630262965   -0.0000000000    0.5000000000          0.5914
C347       C    0.8417911659    0.0013366184    0.4713145419         -0.4068
C348       C    0.8063228652   -0.0015752670    0.4740476080         -0.4044
C349       C    0.7902683761   -0.0057614242    0.5062383929         -0.4041
C350       C    0.8119238598   -0.0080112912    0.5351442494         -0.4051
C351       C    0.8474970792   -0.0046995644    0.5317672583          0.5922
N352       N    0.7555732553   -0.0094261868    0.5103611069         -0.4013
F353       F    0.7878530827   -0.0013876905    0.4431004458         -0.4012
H354       H    0.8530619617    0.0044705288    0.4446824889         -0.4067
H355       H    0.8640337977   -0.0059452351    0.5556396890          0.5908
C356       C    0.7973617153   -0.0123499082    0.5730191844         -0.4053
N357       N    0.7385194411    0.0152117840    0.4938037794          0.5772
C358       C    0.7017360092    0.0054687824    0.4816030860          0.5877
C359       C    0.6745997439   -0.0000186357    0.5123610142          0.5893
N360       N    0.6369737035   -0.0000000000    0.5000000000          0.5905
N361       N    0.6445966823    0.0093735082    0.4730812045          0.5847
N362       N    0.6792066888    0.0137235962    0.4645196154          0.5817
H363       H    0.6778428269    0.0206449513    0.5328899466          0.5675
H364       H    0.6802212986   -0.0257800153    0.5250537216         -0.3877
H365       H    0.7028304195   -0.0173180846    0.4630084338         -0.3887
H366       H    0.7699751427   -0.0025651434    0.5758807985           0.585
H367       H    0.8135484006    0.0026336236    0.5921437678          0.5784
H368       H    0.7977949730   -0.0404501407    0.5809444025         -0.3796
C323       C    1.1369737035   -0.0000000000    0.5000000000          0.5914
C324       C    1.1582088341    0.0118735340    0.4738530835         -0.4068
C325       C    1.1936771348    0.0132212876    0.4776123768         -0.4044
C326       C    1.2097316239    0.0022883096    0.5081777255         -0.4041
C327       C    1.1880761402   -0.0088725439    0.5349367574         -0.4051
C328       C    1.1525029208   -0.0102830234    0.5304220978          0.5922
N329       N    1.2444267447    0.0036734852    0.5135170648         -0.4013
F330       F    1.2121469173    0.0271477871    0.4499751801         -0.4012
H331       H    1.1469380383    0.0212118358    0.4487157852         -0.4067
H332       H    1.1359662023   -0.0200456493    0.5522426335          0.5908
C333       C    1.2026382847   -0.0222583804    0.5706320468         -0.4053
N334       N    1.2614805589   -0.0107210224    0.4875560777          0.5772
C335       C    1.2982639908    0.0035092775    0.4811310043          0.5877
C336       C    1.3254002561   -0.0056126780    0.5110133040          0.5893
N337       N    1.3630262965   -0.0000000000    0.5000000000          0.5905
N338       N    1.3554033177    0.0039138697    0.4717658747          0.5847
N339       N    1.3207933112    0.0039400460    0.4621625738          0.5817
H340       H    1.3221571731   -0.0333581265    0.5198795875          0.5675
H341       H    1.3197787014    0.0115419506    0.5340452865         -0.3877
H342       H    1.2971695805    0.0322641678    0.4749537327         -0.3887
H343       H    1.2300248573   -0.0322727968    0.5687236650           0.585
H344       H    1.1864515994   -0.0443074170    0.5808347866          0.5784
H345       H    1.2022050270   -0.0008503687    0.5904847339         -0.3796
C300       C   -0.0000000000   -0.3630262965    0.0000000000          0.5914
C301       C    0.0034856987   -0.3417911659   -0.0285042445         -0.4068
C302       C    0.0003769084   -0.3063228652   -0.0259974241         -0.4044
C303       C   -0.0062133683   -0.2902683761    0.0057884030         -0.4041
C304       C   -0.0106262810   -0.3119238598    0.0344438849         -0.4051
C305       C   -0.0070704501   -0.3474970792    0.0313249635          0.5922
N306       N   -0.0101772060   -0.2555732553    0.0096244487         -0.4013
F307       F    0.0028865471   -0.2878530827   -0.0568432300         -0.4012
H308       H    0.0086095121   -0.3530619617   -0.0548259880         -0.4067
H309       H   -0.0101042389   -0.3640337977    0.0550365803          0.5908
C310       C   -0.0177951842   -0.2973617153    0.0718863892         -0.4053
N311       N    0.0156339108   -0.2385194411   -0.0050370980          0.5772
C312       C    0.0068340515   -0.2017360092   -0.0179345969          0.5877
C313       C   -0.0009462800   -0.1745997439    0.0123247545          0.5893
N314       N    0.0000000000   -0.1369737035    0.0000000000          0.5905
N315       N    0.0113673341   -0.1445966823   -0.0261393941          0.5847
N316       N    0.0163477030   -0.1792066888   -0.0343503624          0.5817
H317       H    0.0181183298   -0.1778428269    0.0343465970          0.5675
H318       H   -0.0275875967   -0.1802212986    0.0230482682         -0.3877
H319       H   -0.0144930182   -0.2028304195   -0.0381869670         -0.3887
H320       H   -0.0082527796   -0.2699751427    0.0754742816           0.585
H321       H   -0.0042892138   -0.3135484006    0.0920815539          0.5784
H322       H   -0.0464109566   -0.2977949730    0.0776803276         -0.3796
C277       C    0.0000000000    0.1369737035    0.0000000000          0.5914
C278       C   -0.0099308110    0.1582088341   -0.0269447777         -0.4068
C279       C   -0.0115497113    0.1936771348   -0.0232940397         -0.4044
C280       C   -0.0028798657    0.2097316239    0.0079886124         -0.4041
C281       C    0.0062954338    0.1880761402    0.0354917817         -0.4051
C282       C    0.0080320988    0.1525029208    0.0310922819          0.5922
N283       N   -0.0046515670    0.2444267447    0.0132124358         -0.4013
F284       F   -0.0234190792    0.2121469173   -0.0518751548         -0.4012
H285       H   -0.0174069587    0.1469380383   -0.0526973477         -0.4067
H286       H    0.0161738442    0.1359662023    0.0535679716          0.5908
C287       C    0.0170366521    0.2026382847    0.0720699245         -0.4053
N288       N    0.0116018250    0.2614805589   -0.0116270882          0.5772
C289       C   -0.0021208363    0.2982639908   -0.0190750119          0.5877
C290       C    0.0047927514    0.3254002561    0.0113940579          0.5893
N291       N    0.0000000000    0.3630262965    0.0000000000          0.5905
N292       N   -0.0018398882    0.3554033177   -0.0284446659          0.5847
N293       N   -0.0011641293    0.3207933112   -0.0380241974          0.5817
H294       H    0.0318159992    0.3221571731    0.0222644289          0.5675
H295       H   -0.0139993114    0.3197787014    0.0331106847         -0.3877
H296       H   -0.0303473550    0.2971695805   -0.0273373384         -0.3887
H297       H    0.0271637622    0.2300248573    0.0708985583           0.585
H298       H    0.0382810463    0.1864515994    0.0838568507          0.5784
H299       H   -0.0057650573    0.2022050270    0.0903048963         -0.3796
C254       C   -0.1369737035   -0.0000000000    0.0000000000          0.5914
C255       C   -0.1582088341   -0.0282978336    0.0048861706         -0.4068
C256       C   -0.1936771348   -0.0250007029    0.0071395359         -0.4044
C257       C   -0.2097316239    0.0073348638    0.0042791737         -0.4041
C258       C   -0.1880761402    0.0360450109    0.0002371572         -0.4051
C259       C   -0.1525029208    0.0320328330   -0.0022676447          0.5922
N260       N   -0.2444267447    0.0121513850    0.0069677383         -0.4013
F261       F   -0.2121469173   -0.0552589309    0.0136358174         -0.4012
H262       H   -0.1469380383   -0.0549785767    0.0075742173         -0.4067
H263       H   -0.1359662023    0.0556114520   -0.0062038064          0.5908
C264       C   -0.2026382847    0.0739636592   -0.0037011691         -0.4053
N265       N   -0.2614805589   -0.0093333905   -0.0135158923          0.5772
C266       C   -0.2982639908   -0.0191436487   -0.0013692123          0.5877
C267       C   -0.3254002561    0.0120736894   -0.0026497255          0.5893
N268       N   -0.3630262965   -0.0000000000    0.0000000000          0.5905
N269       N   -0.3554033177   -0.0283074418   -0.0033425961          0.5847
N270       N   -0.3207933112   -0.0376061307   -0.0057422749          0.5817
H271       H   -0.3221571731    0.0276588622   -0.0272571082          0.5675
H272       H   -0.3197787014    0.0300274026    0.0197649502         -0.3877
H273       H   -0.2971695805   -0.0323818569    0.0248939224         -0.3887
H274       H   -0.2300248573    0.0746459447   -0.0138729410           0.585
H275       H   -0.1864515994    0.0894035299   -0.0224592688          0.5784
H276       H   -0.2022050270    0.0877670550    0.0220262173         -0.3796
C231       C    0.1369737035   -0.0000000000    0.0000000000          0.5914
C232       C    0.1582088341    0.0286438977   -0.0020418568         -0.4068
C233       C    0.1936771348    0.0259832891    0.0009363789         -0.4044
C234       C    0.2097316239   -0.0060947780    0.0059131410         -0.4041
C235       C    0.1880761402   -0.0349365421    0.0088733918         -0.4051
C236       C    0.1525029208   -0.0316420391    0.0054795954          0.5922
N237       N    0.2444267447   -0.0101260937    0.0096782106         -0.4013
F238       F    0.2121469173    0.0569164721   -0.0000124202         -0.4012
H239       H    0.1469380383    0.0551907995   -0.0058299495         -0.4067
H240       H    0.1359662023   -0.0554766031    0.0073121349          0.5908
C241       C    0.2026382847   -0.0726932887    0.0141423938         -0.4053
N242       N    0.2614805589    0.0058201459   -0.0153596037          0.5772
C243       C    0.2982639908    0.0182568186   -0.0059196792          0.5877
C244       C    0.3254002561   -0.0123568152    0.0003227027          0.5893
N245       N    0.3630262965   -0.0000000000    0.0000000000          0.5905
N246       N    0.3554033177    0.0266800676   -0.0100328560          0.5847
N247       N    0.3207933112    0.0351320567   -0.0145922369          0.5817
H248       H    0.3221571731   -0.0333878457   -0.0198296334          0.5675
H249       H    0.3197787014   -0.0244119691    0.0263885188         -0.3877
H250       H    0.2971695805    0.0374063855    0.0164028764         -0.3887
H251       H    0.2300248573   -0.0757947355    0.0044309838           0.585
H252       H    0.1864515994   -0.0921806696   -0.0003661519          0.5784
H253       H    0.2022050270   -0.0799248618    0.0424290780         -0.3796
C208       C    0.0000000000    0.0000000000   -0.1369737035          0.5914
C209       C    0.0286434610   -0.0020479725   -0.1582088341         -0.4068
C210       C    0.0255867509   -0.0046180404   -0.1936771348         -0.4044
C211       C   -0.0068729804   -0.0049873535   -0.2097316239         -0.4041
C212       C   -0.0358427672   -0.0038203521   -0.1880761402         -0.4051
C213       C   -0.0320995574   -0.0009289884   -0.1525029208          0.5922
N214       N   -0.0113982731   -0.0081415542   -0.2444267447         -0.4013
F215       F    0.0563410012   -0.0080731986   -0.2121469173         -0.4012
H216       H    0.0554592620   -0.0020695223   -0.1469380383         -0.4067
H217       H   -0.0559527247    0.0006429698   -0.1359662023          0.5908
C218       C   -0.0739651014   -0.0036722341   -0.2026382847         -0.4053
N219       N    0.0079430879    0.0143770260   -0.2614805589          0.5772
C220       C    0.0189126049    0.0032660990   -0.2982639908          0.5877
C221       C   -0.0122773377    0.0014359660   -0.3254002561          0.5893
N222       N   -0.0000000000    0.0000000000   -0.3630262965          0.5905
N223       N    0.0278347405    0.0061409631   -0.3554033177          0.5847
N224       N    0.0368487120    0.0094534232   -0.3207933112          0.5817
H225       H   -0.0302322566    0.0243715668   -0.3221571731          0.5675
H226       H   -0.0279131125   -0.0226529537   -0.3197787014         -0.3877
H227       H    0.0346968425   -0.0215504326   -0.2971695805         -0.3887
H228       H   -0.0756555015    0.0063812730   -0.2300248573           0.585
H229       H   -0.0911937768    0.0134575252   -0.1864515994          0.5784
H230       H   -0.0851417092   -0.0306447310   -0.2022050270         -0.3796
C185       C   -0.0000000000   -0.0000000000    0.1369737035          0.5914
C186       C   -0.0286436068   -0.0020459329    0.1582088341         -0.4068
C187       C   -0.0255870796   -0.0046162184    0.1936771348         -0.4044
C188       C    0.0068726253   -0.0049878429    0.2097316239         -0.4041
C189       C    0.0358424951   -0.0038229044    0.1880761402         -0.4051
C190       C    0.0320994911   -0.0009312742    0.1525029208          0.5922
N191       N    0.0113976934   -0.0081423658    0.2444267447         -0.4013
F192       F   -0.0563415760   -0.0080691867    0.2121469173         -0.4012
H193       H   -0.0554594092   -0.0020655732    0.1469380383         -0.4067
H194       H    0.0559527703    0.0006389856    0.1359662023          0.5908
C195       C    0.0739648397   -0.0036775010    0.2026382847         -0.4053
N196       N   -0.0079420642    0.0143775916    0.2614805589          0.5772
C197       C   -0.0189123723    0.0032674457    0.2982639908          0.5877
C198       C    0.0122774400    0.0014350917    0.3254002561          0.5893
N199       N    0.0000000000    0.0000000000    0.3630262965          0.5905
N200       N   -0.0278343032    0.0061429451    0.3554033177          0.5847
N201       N   -0.0368480387    0.0094560471    0.3207933112          0.5817
H202       H    0.0302339919    0.0243694139    0.3221571731          0.5675
H203       H    0.0279114994   -0.0226549413    0.3197787014         -0.3877
H204       H   -0.0346983770   -0.0215479619    0.2971695805         -0.3887
H205       H    0.0756559557    0.0063758857    0.2300248573           0.585
H206       H    0.0911947349    0.0134510316    0.1864515994          0.5784
H207       H    0.0851395269   -0.0306507936    0.2022050270         -0.3796
loop_
_geom_bond_atom_site_label_1
_geom_bond_atom_site_label_2
_geom_bond_distance
_geom_bond_site_symmetry_2
_ccdc_geom_bond_type
Zn1          O5 1.942       .   S
Zn1          O6 1.922       .   S
Zn1         O10 1.922       .   S
Zn1         O17 1.922       .   S
Zn2          O5 1.942       .   S
Zn2          O7 1.922       .   S
Zn2          O9 1.922       .   S
Zn2         O13 1.922       .   S
Zn3          O5 1.942       .   S
Zn3          O8 1.922       .   S
Zn3         O11 1.922       .   S
Zn3         O14 1.922       .   S
Zn4          O5 1.942       .   S
Zn4         O12 1.922       .   S
Zn4         O15 1.922       .   S
Zn4         O16 1.922       .   S
O6          C18 1.304       .   A
O7          C19 1.304       .   A
O8          C20 1.304       .   A
O9          C18 1.304       .   A
O10         C20 1.304       .   A
O11         C19 1.304       .   A
O12         C21 1.304       .   A
O13         C22 1.304       .   A
O14         C21 1.304       .   A
O15         C22 1.304       .   A
O16         C23 1.304       .   A
O17         C23 1.304       .   A
C18        C185 1.540       .   S
C19        C231 1.540       .   S
C20        N314 1.540       .   S
C21        C208 1.540       .   S
C22        C277 1.540       .   S
C23        C254 1.540       .   S
Zn24        O28 1.942       .   S
Zn24        O29 1.922       .   S
Zn24        O33 1.922       .   S
Zn24        O40 1.922       .   S
Zn25        O28 1.942       .   S
Zn25        O30 1.922       .   S
Zn25        O32 1.922       .   S
Zn25        O36 1.922       .   S
Zn26        O28 1.942       .   S
Zn26        O31 1.922       .   S
Zn26        O34 1.922       .   S
Zn26        O37 1.922       .   S
Zn27        O28 1.942       .   S
Zn27        O35 1.922       .   S
Zn27        O38 1.922       .   S
Zn27        O39 1.922       .   S
O29         C41 1.304       .   A
O30         C42 1.304       .   A
O31         C43 1.304       .   A
O32         C41 1.304       .   A
O33         C43 1.304       .   A
O34         C42 1.304       .   A
O35         C44 1.304       .   A
O36         C45 1.304       .   A
O37         C44 1.304       .   A
O38         C45 1.304       .   A
O39         C46 1.304       .   A
O40         C46 1.304       .   A
C41        C392 1.540       .   S
C42        C323 1.540       .   S
C43        N199 1.540   1_655   S
C44        N383 1.540       .   S
C45        N222 1.540   1_656   S
C46        C346 1.540       .   S
Zn47        O51 1.942       .   S
Zn47        O52 1.922       .   S
Zn47        O56 1.922       .   S
Zn47        O63 1.922       .   S
Zn48        O51 1.942       .   S
Zn48        O53 1.922       .   S
Zn48        O55 1.922       .   S
Zn48        O59 1.922       .   S
Zn49        O51 1.942       .   S
Zn49        O54 1.922       .   S
Zn49        O57 1.922       .   S
Zn49        O60 1.922       .   S
Zn50        O51 1.942       .   S
Zn50        O58 1.922       .   S
Zn50        O61 1.922       .   S
Zn50        O62 1.922       .   S
O52         C64 1.304       .   A
O53         C65 1.304       .   A
O54         C66 1.304       .   A
O55         C64 1.304       .   A
O56         C66 1.304       .   A
O57         C65 1.304       .   A
O58         C67 1.304       .   A
O59         C68 1.304       .   A
O60         C67 1.304       .   A
O61         C68 1.304       .   A
O62         C69 1.304       .   A
O63         C69 1.304       .   A
C64        N291 1.540   1_655   S
C65        C415 1.540       .   S
C66        C461 1.540       .   S
C67        C300 1.540   1_665   S
C68        C484 1.540       .   S
C69        C438 1.540       .   S
Zn70        O74 1.942       .   S
Zn70        O75 1.922       .   S
Zn70        O79 1.922       .   S
Zn70        O86 1.922       .   S
Zn71        O74 1.942       .   S
Zn71        O76 1.922       .   S
Zn71        O78 1.922       .   S
Zn71        O82 1.922       .   S
Zn72        O74 1.942       .   S
Zn72        O77 1.922       .   S
Zn72        O80 1.922       .   S
Zn72        O83 1.922       .   S
Zn73        O74 1.942       .   S
Zn73        O81 1.922       .   S
Zn73        O84 1.922       .   S
Zn73        O85 1.922       .   S
O75         C87 1.304       .   A
O76         C88 1.304       .   A
O77         C89 1.304       .   A
O78         C87 1.304       .   A
O79         C89 1.304       .   A
O80         C88 1.304       .   A
O81         C90 1.304       .   A
O82         C91 1.304       .   A
O83         C90 1.304       .   A
O84         C91 1.304       .   A
O85         C92 1.304       .   A
O86         C92 1.304       .   A
C87        C369 1.540       .   S
C88        N429 1.540       .   S
C89        C530 1.540       .   S
C90        N406 1.540   1_565   S
C91        C507 1.540       .   S
C92        N452 1.540   1_556   S
Zn93        O97 1.942       .   S
Zn93        O98 1.922       .   S
Zn93       O102 1.922       .   S
Zn93       O109 1.922       .   S
Zn94        O97 1.942       .   S
Zn94        O99 1.922       .   S
Zn94       O101 1.922       .   S
Zn94       O105 1.922       .   S
Zn95        O97 1.942       .   S
Zn95       O100 1.922       .   S
Zn95       O103 1.922       .   S
Zn95       O106 1.922       .   S
Zn96        O97 1.942       .   S
Zn96       O104 1.922       .   S
Zn96       O107 1.922       .   S
Zn96       O108 1.922       .   S
O98        C110 1.304       .   A
O99        C111 1.304       .   A
O100       C112 1.304       .   A
O101       C110 1.304       .   A
O102       C112 1.304       .   A
O103       C111 1.304       .   A
O104       C113 1.304       .   A
O105       C114 1.304       .   A
O106       C113 1.304       .   A
O107       C114 1.304       .   A
O108       C115 1.304       .   A
O109       C115 1.304       .   A
C110       N245 1.540   1_565   S
C111       C553 1.540       .   S
C112       C622 1.540       .   S
C113       N268 1.540   1_665   S
C114       C599 1.540       .   S
C115       N590 1.540       .   S
Zn116      O120 1.942       .   S
Zn116      O121 1.922       .   S
Zn116      O125 1.922       .   S
Zn116      O132 1.922       .   S
Zn117      O120 1.942       .   S
Zn117      O122 1.922       .   S
Zn117      O124 1.922       .   S
Zn117      O128 1.922       .   S
Zn118      O120 1.942       .   S
Zn118      O123 1.922       .   S
Zn118      O126 1.922       .   S
Zn118      O129 1.922       .   S
Zn119      O120 1.942       .   S
Zn119      O127 1.922       .   S
Zn119      O130 1.922       .   S
Zn119      O131 1.922       .   S
O121       C133 1.304       .   A
O122       C134 1.304       .   A
O123       C135 1.304       .   A
O124       C133 1.304       .   A
O125       C135 1.304       .   A
O126       C134 1.304       .   A
O127       C136 1.304       .   A
O128       C137 1.304       .   A
O129       C136 1.304       .   A
O130       C137 1.304       .   A
O131       C138 1.304       .   A
O132       C138 1.304       .   A
C133       C668 1.540       .   S
C134       N337 1.540   1_465   S
C135       C576 1.540   1_556   S
C136       C645 1.540       .   S
C137       N567 1.540       .   S
C138       N360 1.540   1_565   S
Zn139      O143 1.942       .   S
Zn139      O144 1.922       .   S
Zn139      O148 1.922       .   S
Zn139      O155 1.922       .   S
Zn140      O143 1.942       .   S
Zn140      O145 1.922       .   S
Zn140      O147 1.922       .   S
Zn140      O151 1.922       .   S
Zn141      O143 1.942       .   S
Zn141      O146 1.922       .   S
Zn141      O149 1.922       .   S
Zn141      O152 1.922       .   S
Zn142      O143 1.942       .   S
Zn142      O150 1.922       .   S
Zn142      O153 1.922       .   S
Zn142      O154 1.922       .   S
O144       C156 1.304       .   A
O145       C157 1.304       .   A
O146       C158 1.304       .   A
O147       C156 1.304       .   A
O148       C158 1.304       .   A
O149       C157 1.304       .   A
O150       C159 1.304       .   A
O151       C160 1.304       .   A
O152       C159 1.304       .   A
O153       C160 1.304       .   A
O154       C161 1.304       .   A
O155       C161 1.304       .   A
C156       C691 1.540       .   S
C157       N475 1.540   1_455   S
C158       N636 1.540       .   S
C159       C714 1.540       .   S
C160       N613 1.540   1_545   S
C161       N498 1.540       .   S
Zn162      O166 1.942       .   S
Zn162      O167 1.922       .   S
Zn162      O171 1.922       .   S
Zn162      O178 1.922       .   S
Zn163      O166 1.942       .   S
Zn163      O168 1.922       .   S
Zn163      O170 1.922       .   S
Zn163      O174 1.922       .   S
Zn164      O166 1.942       .   S
Zn164      O169 1.922       .   S
Zn164      O172 1.922       .   S
Zn164      O175 1.922       .   S
Zn165      O166 1.942       .   S
Zn165      O173 1.922       .   S
Zn165      O176 1.922       .   S
Zn165      O177 1.922       .   S
O167       C179 1.304       .   A
O168       C180 1.304       .   A
O169       C181 1.304       .   A
O170       C179 1.304       .   A
O171       C181 1.304       .   A
O172       C180 1.304       .   A
O173       C182 1.304       .   A
O174       C183 1.304       .   A
O175       C182 1.304       .   A
O176       C183 1.304       .   A
O177       C184 1.304       .   A
O178       C184 1.304       .   A
C179       N659 1.540   1_545   S
C180       N544 1.540       .   S
C181       N705 1.540       .   S
C182       N682 1.540       .   S
C183       N728 1.540   1_556   S
C184       N521 1.540   1_455   S
C714       C715 0.034       .   A
C714       C719 0.034       .   A
C715       C716 0.034       .   A
C715       H722 0.028       .   A
C716       C717 0.035       .   A
C716       F721 0.034       .   A
C717       C718 0.034       .   A
C717       N720 0.033       .   A
C718       C719 0.034       .   A
C718       C724 0.039       .   A
C719       H723 0.028       .   A
N720       N725 0.033       .   A
C724       H734 0.028       .   A
C724       H735 0.028       .   A
C724       H736 0.028       .   A
N725       C726 0.038       .   A
C726       C727 0.039       .   A
C726       N730 0.028       .   A
C726       H733 0.028       .   A
C727       N728 0.038       .   A
C727       H731 0.028       .   A
C727       H732 0.028       .   A
N728       N729 0.028       .   A
N729       N730 0.034       .   A
C691       C692 0.034       .   A
C691       C696 0.034       .   A
C692       C693 0.034       .   A
C692       H699 0.028       .   A
C693       C694 0.035       .   A
C693       F698 0.034       .   A
C694       C695 0.034       .   A
C694       N697 0.033       .   A
C695       C696 0.034       .   A
C695       C701 0.039       .   A
C696       H700 0.028       .   A
N697       N702 0.033       .   A
C701       H711 0.028       .   A
C701       H712 0.028       .   A
C701       H713 0.028       .   A
N702       C703 0.038       .   A
C703       C704 0.039       .   A
C703       N707 0.028       .   A
C703       H710 0.028       .   A
C704       N705 0.038       .   A
C704       H708 0.028       .   A
C704       H709 0.028       .   A
N705       N706 0.028       .   A
N706       N707 0.034       .   A
C668       C669 0.034       .   A
C668       C673 0.034       .   A
C669       C670 0.034       .   A
C669       H676 0.028       .   A
C670       C671 0.035       .   A
C670       F675 0.034       .   A
C671       C672 0.034       .   A
C671       N674 0.033       .   A
C672       C673 0.034       .   A
C672       C678 0.039       .   A
C673       H677 0.028       .   A
N674       N679 0.033       .   A
C678       H688 0.028       .   A
C678       H689 0.028       .   A
C678       H690 0.028       .   A
N679       C680 0.038       .   A
C680       C681 0.039       .   A
C680       N684 0.028       .   A
C680       H687 0.028       .   A
C681       N682 0.038       .   A
C681       H685 0.028       .   A
C681       H686 0.028       .   A
N682       N683 0.028       .   A
N683       N684 0.034       .   A
C645       C646 0.034       .   A
C645       C650 0.034       .   A
C646       C647 0.034       .   A
C646       H653 0.028       .   A
C647       C648 0.035       .   A
C647       F652 0.034       .   A
C648       C649 0.034       .   A
C648       N651 0.033       .   A
C649       C650 0.034       .   A
C649       C655 0.039       .   A
C650       H654 0.028       .   A
N651       N656 0.033       .   A
C655       H665 0.028       .   A
C655       H666 0.028       .   A
C655       H667 0.028       .   A
N656       C657 0.038       .   A
C657       C658 0.039       .   A
C657       N661 0.028       .   A
C657       H664 0.028       .   A
C658       N659 0.038       .   A
C658       H662 0.028       .   A
C658       H663 0.028       .   A
N659       N660 0.028       .   A
N660       N661 0.034       .   A
C622       C623 0.034       .   A
C622       C627 0.034       .   A
C623       C624 0.034       .   A
C623       H630 0.028       .   A
C624       C625 0.035       .   A
C624       F629 0.034       .   A
C625       C626 0.034       .   A
C625       N628 0.033       .   A
C626       C627 0.034       .   A
C626       C632 0.039       .   A
C627       H631 0.028       .   A
N628       N633 0.033       .   A
C632       H642 0.028       .   A
C632       H643 0.028       .   A
C632       H644 0.028       .   A
N633       C634 0.038       .   A
C634       C635 0.039       .   A
C634       N638 0.028       .   A
C634       H641 0.028       .   A
C635       N636 0.038       .   A
C635       H639 0.028       .   A
C635       H640 0.028       .   A
N636       N637 0.028       .   A
N637       N638 0.034       .   A
C599       C600 0.034       .   A
C599       C604 0.034       .   A
C600       C601 0.034       .   A
C600       H607 0.028       .   A
C601       C602 0.035       .   A
C601       F606 0.034       .   A
C602       C603 0.034       .   A
C602       N605 0.033       .   A
C603       C604 0.034       .   A
C603       C609 0.039       .   A
C604       H608 0.028       .   A
N605       N610 0.033       .   A
C609       H619 0.028       .   A
C609       H620 0.028       .   A
C609       H621 0.028       .   A
N610       C611 0.038       .   A
C611       C612 0.039       .   A
C611       N615 0.028       .   A
C611       H618 0.028       .   A
C612       N613 0.038       .   A
C612       H616 0.028       .   A
C612       H617 0.028       .   A
N613       N614 0.028       .   A
N614       N615 0.034       .   A
C576       C577 0.034       .   A
C576       C581 0.034       .   A
C577       C578 0.034       .   A
C577       H584 0.028       .   A
C578       C579 0.035       .   A
C578       F583 0.034       .   A
C579       C580 0.034       .   A
C579       N582 0.033       .   A
C580       C581 0.034       .   A
C580       C586 0.039       .   A
C581       H585 0.028       .   A
N582       N587 0.033       .   A
C586       H596 0.028       .   A
C586       H597 0.028       .   A
C586       H598 0.028       .   A
N587       C588 0.038       .   A
C588       C589 0.039       .   A
C588       N592 0.028       .   A
C588       H595 0.028       .   A
C589       N590 0.038       .   A
C589       H593 0.028       .   A
C589       H594 0.028       .   A
N590       N591 0.028       .   A
N591       N592 0.034       .   A
C553       C554 0.034       .   A
C553       C558 0.034       .   A
C554       C555 0.034       .   A
C554       H561 0.028       .   A
C555       C556 0.035       .   A
C555       F560 0.034       .   A
C556       C557 0.034       .   A
C556       N559 0.033       .   A
C557       C558 0.034       .   A
C557       C563 0.039       .   A
C558       H562 0.028       .   A
N559       N564 0.033       .   A
C563       H573 0.028       .   A
C563       H574 0.028       .   A
C563       H575 0.028       .   A
N564       C565 0.038       .   A
C565       C566 0.039       .   A
C565       N569 0.028       .   A
C565       H572 0.028       .   A
C566       N567 0.038       .   A
C566       H570 0.028       .   A
C566       H571 0.028       .   A
N567       N568 0.028       .   A
N568       N569 0.034       .   A
C530       C531 0.034       .   A
C530       C535 0.034       .   A
C531       C532 0.034       .   A
C531       H538 0.028       .   A
C532       C533 0.035       .   A
C532       F537 0.034       .   A
C533       C534 0.034       .   A
C533       N536 0.033       .   A
C534       C535 0.034       .   A
C534       C540 0.039       .   A
C535       H539 0.028       .   A
N536       N541 0.033       .   A
C540       H550 0.028       .   A
C540       H551 0.028       .   A
C540       H552 0.028       .   A
N541       C542 0.038       .   A
C542       C543 0.039       .   A
C542       N546 0.028       .   A
C542       H549 0.028       .   A
C543       N544 0.038       .   A
C543       H547 0.028       .   A
C543       H548 0.028       .   A
N544       N545 0.028       .   A
N545       N546 0.034       .   A
C507       C508 0.034       .   A
C507       C512 0.034       .   A
C508       C509 0.034       .   A
C508       H515 0.028       .   A
C509       C510 0.035       .   A
C509       F514 0.034       .   A
C510       C511 0.034       .   A
C510       N513 0.033       .   A
C511       C512 0.034       .   A
C511       C517 0.039       .   A
C512       H516 0.028       .   A
N513       N518 0.033       .   A
C517       H527 0.028       .   A
C517       H528 0.028       .   A
C517       H529 0.028       .   A
N518       C519 0.038       .   A
C519       C520 0.039       .   A
C519       N523 0.028       .   A
C519       H526 0.028       .   A
C520       N521 0.038       .   A
C520       H524 0.028       .   A
C520       H525 0.028       .   A
N521       N522 0.028       .   A
N522       N523 0.034       .   A
C484       C485 0.034       .   A
C484       C489 0.034       .   A
C485       C486 0.034       .   A
C485       H492 0.028       .   A
C486       C487 0.035       .   A
C486       F491 0.034       .   A
C487       C488 0.034       .   A
C487       N490 0.033       .   A
C488       C489 0.034       .   A
C488       C494 0.039       .   A
C489       H493 0.028       .   A
N490       N495 0.033       .   A
C494       H504 0.028       .   A
C494       H505 0.028       .   A
C494       H506 0.028       .   A
N495       C496 0.038       .   A
C496       C497 0.039       .   A
C496       N500 0.028       .   A
C496       H503 0.028       .   A
C497       N498 0.038       .   A
C497       H501 0.028       .   A
C497       H502 0.028       .   A
N498       N499 0.028       .   A
N499       N500 0.034       .   A
C461       C462 0.034       .   A
C461       C466 0.034       .   A
C462       C463 0.034       .   A
C462       H469 0.028       .   A
C463       C464 0.035       .   A
C463       F468 0.034       .   A
C464       C465 0.034       .   A
C464       N467 0.033       .   A
C465       C466 0.034       .   A
C465       C471 0.039       .   A
C466       H470 0.028       .   A
N467       N472 0.033       .   A
C471       H481 0.028       .   A
C471       H482 0.028       .   A
C471       H483 0.028       .   A
N472       C473 0.038       .   A
C473       C474 0.039       .   A
C473       N477 0.028       .   A
C473       H480 0.028       .   A
C474       N475 0.038       .   A
C474       H478 0.028       .   A
C474       H479 0.028       .   A
N475       N476 0.028       .   A
N476       N477 0.034       .   A
C438       C439 0.034       .   A
C438       C443 0.034       .   A
C439       C440 0.034       .   A
C439       H446 0.028       .   A
C440       C441 0.035       .   A
C440       F445 0.034       .   A
C441       C442 0.034       .   A
C441       N444 0.033       .   A
C442       C443 0.034       .   A
C442       C448 0.039       .   A
C443       H447 0.028       .   A
N444       N449 0.033       .   A
C448       H458 0.028       .   A
C448       H459 0.028       .   A
C448       H460 0.028       .   A
N449       C450 0.038       .   A
C450       C451 0.039       .   A
C450       N454 0.028       .   A
C450       H457 0.028       .   A
C451       N452 0.038       .   A
C451       H455 0.028       .   A
C451       H456 0.028       .   A
N452       N453 0.028       .   A
N453       N454 0.034       .   A
C415       C416 0.034       .   A
C415       C420 0.034       .   A
C416       C417 0.034       .   A
C416       H423 0.028       .   A
C417       C418 0.035       .   A
C417       F422 0.034       .   A
C418       C419 0.034       .   A
C418       N421 0.033       .   A
C419       C420 0.034       .   A
C419       C425 0.039       .   A
C420       H424 0.028       .   A
N421       N426 0.033       .   A
C425       H435 0.028       .   A
C425       H436 0.028       .   A
C425       H437 0.028       .   A
N426       C427 0.038       .   A
C427       C428 0.039       .   A
C427       N431 0.028       .   A
C427       H434 0.028       .   A
C428       N429 0.038       .   A
C428       H432 0.028       .   A
C428       H433 0.028       .   A
N429       N430 0.028       .   A
N430       N431 0.034       .   A
C392       C393 0.034       .   A
C392       C397 0.034       .   A
C393       C394 0.034       .   A
C393       H400 0.028       .   A
C394       C395 0.035       .   A
C394       F399 0.034       .   A
C395       C396 0.034       .   A
C395       N398 0.033       .   A
C396       C397 0.034       .   A
C396       C402 0.039       .   A
C397       H401 0.028       .   A
N398       N403 0.033       .   A
C402       H412 0.028       .   A
C402       H413 0.028       .   A
C402       H414 0.028       .   A
N403       C404 0.038       .   A
C404       C405 0.039       .   A
C404       N408 0.028       .   A
C404       H411 0.028       .   A
C405       N406 0.038       .   A
C405       H409 0.028       .   A
C405       H410 0.028       .   A
N406       N407 0.028       .   A
N407       N408 0.034       .   A
C369       C370 0.034       .   A
C369       C374 0.034       .   A
C370       C371 0.034       .   A
C370       H377 0.028       .   A
C371       C372 0.035       .   A
C371       F376 0.034       .   A
C372       C373 0.034       .   A
C372       N375 0.033       .   A
C373       C374 0.034       .   A
C373       C379 0.039       .   A
C374       H378 0.028       .   A
N375       N380 0.033       .   A
C379       H389 0.028       .   A
C379       H390 0.028       .   A
C379       H391 0.028       .   A
N380       C381 0.038       .   A
C381       C382 0.039       .   A
C381       N385 0.028       .   A
C381       H388 0.028       .   A
C382       N383 0.038       .   A
C382       H386 0.028       .   A
C382       H387 0.028       .   A
N383       N384 0.028       .   A
N384       N385 0.034       .   A
C346       C347 0.034       .   A
C346       C351 0.034       .   A
C347       C348 0.034       .   A
C347       H354 0.028       .   A
C348       C349 0.035       .   A
C348       F353 0.034       .   A
C349       C350 0.034       .   A
C349       N352 0.033       .   A
C350       C351 0.034       .   A
C350       C356 0.039       .   A
C351       H355 0.028       .   A
N352       N357 0.033       .   A
C356       H366 0.028       .   A
C356       H367 0.028       .   A
C356       H368 0.028       .   A
N357       C358 0.038       .   A
C358       C359 0.039       .   A
C358       N362 0.028       .   A
C358       H365 0.028       .   A
C359       N360 0.038       .   A
C359       H363 0.028       .   A
C359       H364 0.028       .   A
N360       N361 0.028       .   A
N361       N362 0.034       .   A
C323       C324 0.034       .   A
C323       C328 0.034       .   A
C324       C325 0.034       .   A
C324       H331 0.028       .   A
C325       C326 0.035       .   A
C325       F330 0.034       .   A
C326       C327 0.034       .   A
C326       N329 0.033       .   A
C327       C328 0.034       .   A
C327       C333 0.039       .   A
C328       H332 0.028       .   A
N329       N334 0.033       .   A
C333       H343 0.028       .   A
C333       H344 0.028       .   A
C333       H345 0.028       .   A
N334       C335 0.038       .   A
C335       C336 0.039       .   A
C335       N339 0.028       .   A
C335       H342 0.028       .   A
C336       N337 0.038       .   A
C336       H340 0.028       .   A
C336       H341 0.028       .   A
N337       N338 0.028       .   A
N338       N339 0.034       .   A
C300       C301 0.034       .   A
C300       C305 0.034       .   A
C301       C302 0.034       .   A
C301       H308 0.028       .   A
C302       C303 0.035       .   A
C302       F307 0.034       .   A
C303       C304 0.034       .   A
C303       N306 0.033       .   A
C304       C305 0.034       .   A
C304       C310 0.039       .   A
C305       H309 0.028       .   A
N306       N311 0.033       .   A
C310       H320 0.028       .   A
C310       H321 0.028       .   A
C310       H322 0.028       .   A
N311       C312 0.038       .   A
C312       C313 0.039       .   A
C312       N316 0.028       .   A
C312       H319 0.028       .   A
C313       N314 0.038       .   A
C313       H317 0.028       .   A
C313       H318 0.028       .   A
N314       N315 0.028       .   A
N315       N316 0.034       .   A
C277       C278 0.034       .   A
C277       C282 0.034       .   A
C278       C279 0.034       .   A
C278       H285 0.028       .   A
C279       C280 0.035       .   A
C279       F284 0.034       .   A
C280       C281 0.034       .   A
C280       N283 0.033       .   A
C281       C282 0.034       .   A
C281       C287 0.039       .   A
C282       H286 0.028       .   A
N283       N288 0.033       .   A
C287       H297 0.028       .   A
C287       H298 0.028       .   A
C287       H299 0.028       .   A
N288       C289 0.038       .   A
C289       C290 0.039       .   A
C289       N293 0.028       .   A
C289       H296 0.028       .   A
C290       N291 0.038       .   A
C290       H294 0.028       .   A
C290       H295 0.028       .   A
N291       N292 0.028       .   A
N292       N293 0.034       .   A
C254       C255 0.034       .   A
C254       C259 0.034       .   A
C255       C256 0.034       .   A
C255       H262 0.028       .   A
C256       C257 0.035       .   A
C256       F261 0.034       .   A
C257       C258 0.034       .   A
C257       N260 0.033       .   A
C258       C259 0.034       .   A
C258       C264 0.039       .   A
C259       H263 0.028       .   A
N260       N265 0.033       .   A
C264       H274 0.028       .   A
C264       H275 0.028       .   A
C264       H276 0.028       .   A
N265       C266 0.038       .   A
C266       C267 0.039       .   A
C266       N270 0.028       .   A
C266       H273 0.028       .   A
C267       N268 0.038       .   A
C267       H271 0.028       .   A
C267       H272 0.028       .   A
N268       N269 0.028       .   A
N269       N270 0.034       .   A
C231       C232 0.034       .   A
C231       C236 0.034       .   A
C232       C233 0.034       .   A
C232       H239 0.028       .   A
C233       C234 0.035       .   A
C233       F238 0.034       .   A
C234       C235 0.034       .   A
C234       N237 0.033       .   A
C235       C236 0.034       .   A
C235       C241 0.039       .   A
C236       H240 0.028       .   A
N237       N242 0.033       .   A
C241       H251 0.028       .   A
C241       H252 0.028       .   A
C241       H253 0.028       .   A
N242       C243 0.038       .   A
C243       C244 0.039       .   A
C243       N247 0.028       .   A
C243       H250 0.028       .   A
C244       N245 0.038       .   A
C244       H248 0.028       .   A
C244       H249 0.028       .   A
N245       N246 0.028       .   A
N246       N247 0.034       .   A
C208       C209 0.034       .   A
C208       C213 0.034       .   A
C209       C210 0.034       .   A
C209       H216 0.028       .   A
C210       C211 0.035       .   A
C210       F215 0.034       .   A
C211       C212 0.034       .   A
C211       N214 0.033       .   A
C212       C213 0.034       .   A
C212       C218 0.039       .   A
C213       H217 0.028       .   A
N214       N219 0.033       .   A
C218       H228 0.028       .   A
C218       H229 0.028       .   A
C218       H230 0.028       .   A
N219       C220 0.038       .   A
C220       C221 0.039       .   A
C220       N224 0.028       .   A
C220       H227 0.028       .   A
C221       N222 0.038       .   A
C221       H225 0.028       .   A
C221       H226 0.028       .   A
N222       N223 0.028       .   A
N223       N224 0.034       .   A
C185       C186 0.034       .   A
C185       C190 0.034       .   A
C186       C187 0.034       .   A
C186       H193 0.028       .   A
C187       C188 0.035       .   A
C187       F192 0.034       .   A
C188       C189 0.034       .   A
C188       N191 0.033       .   A
C189       C190 0.034       .   A
C189       C195 0.039       .   A
C190       H194 0.028       .   A
N191       N196 0.033       .   A
C195       H205 0.028       .   A
C195       H206 0.028       .   A
C195       H207 0.028       .   A
N196       C197 0.038       .   A
C197       C198 0.039       .   A
C197       N201 0.028       .   A
C197       H204 0.028       .   A
C198       N199 0.038       .   A
C198       H202 0.028       .   A
C198       H203 0.028       .   A
N199       N200 0.028       .   A
N200       N201 0.034       .   A
