data_pcu_v1-6c_Zn_1_Ch_1-93_fer_tobacco
_audit_creation_date              2021-02-03
_audit_creation_method            'tobacco_3.0'
_symmetry_space_group_name_H-M    'P1'
_symmetry_Int_Tables_number       1
_symmetry_cell_setting            triclinic
loop_
_symmetry_equiv_pos_as_xyz
  x,y,z
_cell_length_a                    51.39627087087001
_cell_length_b                    51.39627087087001
_cell_length_c                    51.39627087087001
_cell_angle_alpha                 90.0
_cell_angle_beta                  90.0
_cell_angle_gamma                 90.0
loop_
_atom_site_label
_atom_site_type_symbol
_atom_site_fract_x
_atom_site_fract_y
_atom_site_fract_z
_atom_site_charge
Zn1       Zn   -0.0218148123   -0.0218148123    0.0218148123          1.4972
Zn2       Zn    0.0218148123    0.0218148123    0.0218148123          1.4936
Zn3       Zn    0.0218148123   -0.0218148123   -0.0218148123          1.4911
Zn4       Zn   -0.0218148123    0.0218148123   -0.0218148123          1.4948
O5         O    0.0000000000    0.0000000000    0.0000000000         -2.1814
O6         O   -0.0160322916   -0.0160322916    0.0583038409         -1.0877
O7         O    0.0583038409    0.0160322916    0.0160322916         -1.0859
O8         O    0.0160322916   -0.0583038409   -0.0160322916         -1.0811
O9         O    0.0160322916    0.0160322916    0.0583038409         -1.0879
O10        O   -0.0160322916   -0.0583038409    0.0160322916         -1.0838
O11        O    0.0583038409   -0.0160322916   -0.0160322916         -1.0897
O12        O   -0.0160322916    0.0160322916   -0.0583038409         -1.0836
O13        O    0.0160322916    0.0583038409    0.0160322916         -1.0912
O14        O    0.0160322916   -0.0160322916   -0.0583038409         -1.0851
O15        O   -0.0160322916    0.0583038409   -0.0160322916         -1.0897
O16        O   -0.0583038409    0.0160322916   -0.0160322916         -1.0888
O17        O   -0.0583038409   -0.0160322916    0.0160322916         -1.0867
C18        C   -0.0000000000   -0.0000000000    0.0697093376          0.4312
C19        C    0.0697093376   -0.0000000000   -0.0000000000          0.4361
C20        C   -0.0000000000   -0.0697093376    0.0000000000          0.4257
C21        C    0.0000000000    0.0000000000   -0.0697093376          0.4294
C22        C    0.0000000000    0.0697093376   -0.0000000000          0.4408
C23        C   -0.0697093376    0.0000000000    0.0000000000          0.4313
Zn24      Zn    0.9781851877    0.0218148123    0.4781851877          1.4972
Zn25      Zn    1.0218148123   -0.0218148123    0.4781851877          1.4936
Zn26      Zn    1.0218148123    0.0218148123    0.5218148123          1.4911
Zn27      Zn    0.9781851877   -0.0218148123    0.5218148123          1.4948
O28        O    1.0000000000    0.0000000000    0.5000000000         -2.1814
O29        O    0.9839677084    0.0160322916    0.4416961591         -1.0877
O30        O    1.0583038409   -0.0160322916    0.4839677084         -1.0859
O31        O    1.0160322916    0.0583038409    0.5160322916         -1.0811
O32        O    1.0160322916   -0.0160322916    0.4416961591         -1.0879
O33        O    0.9839677084    0.0583038409    0.4839677084         -1.0838
O34        O    1.0583038409    0.0160322916    0.5160322916         -1.0897
O35        O    0.9839677084   -0.0160322916    0.5583038409         -1.0836
O36        O    1.0160322916   -0.0583038409    0.4839677084         -1.0912
O37        O    1.0160322916    0.0160322916    0.5583038409         -1.0851
O38        O    0.9839677084   -0.0583038409    0.5160322916         -1.0897
O39        O    0.9416961591   -0.0160322916    0.5160322916         -1.0888
O40        O    0.9416961591    0.0160322916    0.4839677084         -1.0867
C41        C    1.0000000000    0.0000000000    0.4302906624          0.4312
C42        C    1.0697093376    0.0000000000    0.5000000000          0.4361
C43        C    1.0000000000    0.0697093376    0.5000000000          0.4257
C44        C    1.0000000000    0.0000000000    0.5697093376          0.4294
C45        C    1.0000000000   -0.0697093376    0.5000000000          0.4408
C46        C    0.9302906624    0.0000000000    0.5000000000          0.4313
Zn47      Zn    1.0218148123    0.4781851877   -0.0218148123          1.4972
Zn48      Zn    0.9781851877    0.4781851877    0.0218148123          1.4936
Zn49      Zn    1.0218148123    0.5218148123    0.0218148123          1.4911
Zn50      Zn    0.9781851877    0.5218148123   -0.0218148123          1.4948
O51        O    1.0000000000    0.5000000000    0.0000000000         -2.1814
O52        O    1.0160322916    0.4416961591   -0.0160322916         -1.0877
O53        O    0.9839677084    0.4839677084    0.0583038409         -1.0859
O54        O    1.0583038409    0.5160322916    0.0160322916         -1.0811
O55        O    0.9839677084    0.4416961591    0.0160322916         -1.0879
O56        O    1.0583038409    0.4839677084   -0.0160322916         -1.0838
O57        O    1.0160322916    0.5160322916    0.0583038409         -1.0897
O58        O    0.9839677084    0.5583038409   -0.0160322916         -1.0836
O59        O    0.9416961591    0.4839677084    0.0160322916         -1.0912
O60        O    1.0160322916    0.5583038409    0.0160322916         -1.0851
O61        O    0.9416961591    0.5160322916   -0.0160322916         -1.0897
O62        O    0.9839677084    0.5160322916   -0.0583038409         -1.0888
O63        O    1.0160322916    0.4839677084   -0.0583038409         -1.0867
C64        C    1.0000000000    0.4302906624    0.0000000000          0.4312
C65        C    1.0000000000    0.5000000000    0.0697093376          0.4361
C66        C    1.0697093376    0.5000000000    0.0000000000          0.4257
C67        C    1.0000000000    0.5697093376    0.0000000000          0.4294
C68        C    0.9302906624    0.5000000000    0.0000000000          0.4408
C69        C    1.0000000000    0.5000000000   -0.0697093376          0.4313
Zn70      Zn    0.9781851877    0.4781851877    0.5218148123          1.4972
Zn71      Zn    1.0218148123    0.4781851877    0.4781851877          1.4936
Zn72      Zn    0.9781851877    0.5218148123    0.4781851877          1.4911
Zn73      Zn    1.0218148123    0.5218148123    0.5218148123          1.4948
O74        O    1.0000000000    0.5000000000    0.5000000000         -2.1814
O75        O    0.9839677084    0.4416961591    0.5160322916         -1.0877
O76        O    1.0160322916    0.4839677084    0.4416961591         -1.0859
O77        O    0.9416961591    0.5160322916    0.4839677084         -1.0811
O78        O    1.0160322916    0.4416961591    0.4839677084         -1.0879
O79        O    0.9416961591    0.4839677084    0.5160322916         -1.0838
O80        O    0.9839677084    0.5160322916    0.4416961591         -1.0897
O81        O    1.0160322916    0.5583038409    0.5160322916         -1.0836
O82        O    1.0583038409    0.4839677084    0.4839677084         -1.0912
O83        O    0.9839677084    0.5583038409    0.4839677084         -1.0851
O84        O    1.0583038409    0.5160322916    0.5160322916         -1.0897
O85        O    1.0160322916    0.5160322916    0.5583038409         -1.0888
O86        O    0.9839677084    0.4839677084    0.5583038409         -1.0867
C87        C    1.0000000000    0.4302906624    0.5000000000          0.4312
C88        C    1.0000000000    0.5000000000    0.4302906624          0.4361
C89        C    0.9302906624    0.5000000000    0.5000000000          0.4257
C90        C    1.0000000000    0.5697093376    0.5000000000          0.4294
C91        C    1.0697093376    0.5000000000    0.5000000000          0.4408
C92        C    1.0000000000    0.5000000000    0.5697093376          0.4313
Zn93      Zn    0.4781851877    0.9781851877   -0.0218148123          1.4972
Zn94      Zn    0.4781851877    1.0218148123    0.0218148123          1.4936
Zn95      Zn    0.5218148123    0.9781851877    0.0218148123          1.4911
Zn96      Zn    0.5218148123    1.0218148123   -0.0218148123          1.4948
O97        O    0.5000000000    1.0000000000    0.0000000000         -2.1814
O98        O    0.4416961591    0.9839677084   -0.0160322916         -1.0877
O99        O    0.4839677084    1.0160322916    0.0583038409         -1.0859
O100       O    0.5160322916    0.9416961591    0.0160322916         -1.0811
O101       O    0.4416961591    1.0160322916    0.0160322916         -1.0879
O102       O    0.4839677084    0.9416961591   -0.0160322916         -1.0838
O103       O    0.5160322916    0.9839677084    0.0583038409         -1.0897
O104       O    0.5583038409    1.0160322916   -0.0160322916         -1.0836
O105       O    0.4839677084    1.0583038409    0.0160322916         -1.0912
O106       O    0.5583038409    0.9839677084    0.0160322916         -1.0851
O107       O    0.5160322916    1.0583038409   -0.0160322916         -1.0897
O108       O    0.5160322916    1.0160322916   -0.0583038409         -1.0888
O109       O    0.4839677084    0.9839677084   -0.0583038409         -1.0867
C110       C    0.4302906624    1.0000000000    0.0000000000          0.4312
C111       C    0.5000000000    1.0000000000    0.0697093376          0.4361
C112       C    0.5000000000    0.9302906624    0.0000000000          0.4257
C113       C    0.5697093376    1.0000000000    0.0000000000          0.4294
C114       C    0.5000000000    1.0697093376    0.0000000000          0.4408
C115       C    0.5000000000    1.0000000000   -0.0697093376          0.4313
Zn116     Zn    0.5218148123    0.9781851877    0.5218148123          1.4972
Zn117     Zn    0.4781851877    0.9781851877    0.4781851877          1.4936
Zn118     Zn    0.4781851877    1.0218148123    0.5218148123          1.4911
Zn119     Zn    0.5218148123    1.0218148123    0.4781851877          1.4948
O120       O    0.5000000000    1.0000000000    0.5000000000         -2.1814
O121       O    0.5160322916    0.9416961591    0.5160322916         -1.0877
O122       O    0.4416961591    0.9839677084    0.4839677084         -1.0859
O123       O    0.4839677084    1.0160322916    0.5583038409         -1.0811
O124       O    0.4839677084    0.9416961591    0.4839677084         -1.0879
O125       O    0.5160322916    0.9839677084    0.5583038409         -1.0838
O126       O    0.4416961591    1.0160322916    0.5160322916         -1.0897
O127       O    0.5160322916    1.0583038409    0.4839677084         -1.0836
O128       O    0.4839677084    0.9839677084    0.4416961591         -1.0912
O129       O    0.4839677084    1.0583038409    0.5160322916         -1.0851
O130       O    0.5160322916    1.0160322916    0.4416961591         -1.0897
O131       O    0.5583038409    1.0160322916    0.4839677084         -1.0888
O132       O    0.5583038409    0.9839677084    0.5160322916         -1.0867
C133       C    0.5000000000    0.9302906624    0.5000000000          0.4312
C134       C    0.4302906624    1.0000000000    0.5000000000          0.4361
C135       C    0.5000000000    1.0000000000    0.5697093376          0.4257
C136       C    0.5000000000    1.0697093376    0.5000000000          0.4294
C137       C    0.5000000000    1.0000000000    0.4302906624          0.4408
C138       C    0.5697093376    1.0000000000    0.5000000000          0.4313
Zn139     Zn    0.4781851877    0.5218148123    0.0218148123          1.4972
Zn140     Zn    0.5218148123    0.4781851877    0.0218148123          1.4936
Zn141     Zn    0.4781851877    0.4781851877   -0.0218148123          1.4911
Zn142     Zn    0.5218148123    0.5218148123   -0.0218148123          1.4948
O143       O    0.5000000000    0.5000000000    0.0000000000         -2.1814
O144       O    0.4839677084    0.5160322916    0.0583038409         -1.0877
O145       O    0.5160322916    0.4416961591    0.0160322916         -1.0859
O146       O    0.4416961591    0.4839677084   -0.0160322916         -1.0811
O147       O    0.5160322916    0.4839677084    0.0583038409         -1.0879
O148       O    0.4416961591    0.5160322916    0.0160322916         -1.0838
O149       O    0.4839677084    0.4416961591   -0.0160322916         -1.0897
O150       O    0.5160322916    0.5160322916   -0.0583038409         -1.0836
O151       O    0.5583038409    0.4839677084    0.0160322916         -1.0912
O152       O    0.4839677084    0.4839677084   -0.0583038409         -1.0851
O153       O    0.5583038409    0.5160322916   -0.0160322916         -1.0897
O154       O    0.5160322916    0.5583038409   -0.0160322916         -1.0888
O155       O    0.4839677084    0.5583038409    0.0160322916         -1.0867
C156       C    0.5000000000    0.5000000000    0.0697093376          0.4312
C157       C    0.5000000000    0.4302906624    0.0000000000          0.4361
C158       C    0.4302906624    0.5000000000    0.0000000000          0.4257
C159       C    0.5000000000    0.5000000000   -0.0697093376          0.4294
C160       C    0.5697093376    0.5000000000    0.0000000000          0.4408
C161       C    0.5000000000    0.5697093376    0.0000000000          0.4313
Zn162     Zn    0.4781851877    0.4781851877    0.5218148123          1.4972
Zn163     Zn    0.4781851877    0.5218148123    0.4781851877          1.4936
Zn164     Zn    0.5218148123    0.5218148123    0.5218148123          1.4911
Zn165     Zn    0.5218148123    0.4781851877    0.4781851877          1.4948
O166       O    0.5000000000    0.5000000000    0.5000000000         -2.1814
O167       O    0.4416961591    0.4839677084    0.5160322916         -1.0877
O168       O    0.4839677084    0.5583038409    0.4839677084         -1.0859
O169       O    0.5160322916    0.5160322916    0.5583038409         -1.0811
O170       O    0.4416961591    0.5160322916    0.4839677084         -1.0879
O171       O    0.4839677084    0.4839677084    0.5583038409         -1.0838
O172       O    0.5160322916    0.5583038409    0.5160322916         -1.0897
O173       O    0.5583038409    0.4839677084    0.4839677084         -1.0836
O174       O    0.4839677084    0.5160322916    0.4416961591         -1.0912
O175       O    0.5583038409    0.5160322916    0.5160322916         -1.0851
O176       O    0.5160322916    0.4839677084    0.4416961591         -1.0897
O177       O    0.5160322916    0.4416961591    0.4839677084         -1.0888
O178       O    0.4839677084    0.4416961591    0.5160322916         -1.0867
C179       C    0.4302906624    0.5000000000    0.5000000000          0.4312
C180       C    0.5000000000    0.5697093376    0.5000000000          0.4361
C181       C    0.5000000000    0.5000000000    0.5697093376          0.4257
C182       C    0.5697093376    0.5000000000    0.5000000000          0.4294
C183       C    0.5000000000    0.5000000000    0.4302906624          0.4408
C184       C    0.5000000000    0.4302906624    0.5000000000          0.4313
C1243      C    0.5000000000    0.5000000000   -0.4003273990           -0.34
C1244      C    0.4766003419    0.4991724848   -0.3871251739         -0.3393
C1245      C    0.4755979210    0.4978810718   -0.3605119226         -0.3382
C1246      C    0.4961268387    0.4975740965   -0.3440662072         -0.3378
C1247      C    0.5188451633    0.4988675735   -0.3572388587         -0.3389
C1248      C    0.5206465420    0.5001214502   -0.3837906332           -0.34
C1249      C    0.4920691864    0.4927351146   -0.3127503951         -0.3339
H1250      H    0.4567932333    0.4964276627   -0.3511523735          -0.337
C1251      C    0.4503069821    0.4996990270   -0.4018031227         -0.3399
H1252      H    0.5399751399    0.5007061872   -0.3923168947         -0.3405
H1253      H    0.5368158860    0.4982416843   -0.3461298581         -0.3383
C1254      C    0.5098378000    0.5022893876   -0.2886991733         -0.3411
C1255      C    0.4908478310    0.5094143783   -0.2647492055          0.6536
N1256      N    0.4668032881    0.4960245911   -0.2729994017         -0.3362
N1257      N    0.4662236871    0.5000206396   -0.3017050810         -0.3395
C1258      C    0.4978363955    0.5135629732   -0.2332005032          0.6506
H1259      H    0.4511498834    0.4892409440   -0.3087912054         -0.3313
H1260      H    0.4687257351    0.4764529891   -0.2705876290         -0.3213
H1261      H    0.5214998723    0.5191931573   -0.2941443558           0.646
H1262      H    0.4864215625    0.5296635251   -0.2696466602          0.6381
H1263      H    0.5230298153    0.4865933535   -0.2830790604          -0.329
H1264      H    0.4924999125    0.4715205797   -0.3111524304         -0.3177
O1265      O    0.4989380396    0.4942074531   -0.2105529543         -0.3344
C1266      C    0.4792483941    0.5295525485   -0.1904515229          0.6386
C1267      C    0.4776092581    0.5321350954   -0.2206418461          0.6365
C1268      C    0.4958795667    0.4954538709   -0.1551542387         -0.3351
H1269      H    0.4580308240    0.5265887764   -0.2269022806          0.6406
H1270      H    0.4840941766    0.5481352621   -0.1813718608          0.6245
H1271      H    0.4603744597    0.5232406203   -0.1829211037          0.6435
H1272      H    0.4808848398    0.5522112379   -0.2267433139          0.6211
H1273      H    0.5189943165    0.5184558086   -0.1839769655          0.6472
C1274      C    0.5000278922    0.5088319092   -0.1843015128          0.6545
H1275      H    0.5165517708    0.5236540204   -0.2327778393          0.6429
C1276      C    0.4247719834    0.5025074615   -0.3861936907         -0.3419
H1277      H    0.4214022571    0.4855145002   -0.3738689749         -0.3289
H1278      H    0.4083298841    0.5040315905   -0.3995974155          0.6568
H1279      H    0.4250083356    0.5200354522   -0.3741732450          0.6447
H1280      H    0.4483708916    0.4818814552   -0.4132433042         -0.3263
H1281      H    0.4504404708    0.5160534801   -0.4154011334          0.6476
C1282      C    0.5080807335    0.5081178540   -0.1281169748          0.6554
N1283      N    0.5000000000    0.5000000000   -0.0996726010         -0.3382
N1284      N    0.4864478025    0.4892170748   -0.1124724127         -0.3301
N1285      N    0.4868102186    0.4854346878   -0.1384105098         -0.3273
H1286      H    0.5292944030    0.5059230704   -0.1291462964         -0.3429
H1287      H    0.5049127129    0.5292134612   -0.1293480457          0.6393
H1288      H    0.5006709590    0.4747496057   -0.1563531100         -0.3192
C1197      C    0.5000000000    0.5000000000    0.0996726010           -0.34
C1198      C    0.4765992441    0.4992041332    0.1128748261         -0.3393
C1199      C    0.4755950775    0.4979140772    0.1394880774         -0.3382
C1200      C    0.4961235612    0.4975793371    0.1559337928         -0.3378
C1201      C    0.5188436145    0.4988420867    0.1427611413         -0.3389
C1202      C    0.5206466873    0.5000935260    0.1162093668           -0.34
C1203      C    0.4920593680    0.4927458476    0.1872496049         -0.3339
H1204      H    0.4567884413    0.4964861023    0.1488476265          -0.337
C1205      C    0.4503066205    0.4997662362    0.0981968773         -0.3399
H1206      H    0.5399760585    0.5006521209    0.1076831053         -0.3405
H1207      H    0.5368134742    0.4981918930    0.1538701419         -0.3383
C1208      C    0.5098408873    0.5022760801    0.2113008267         -0.3411
C1209      C    0.4908605722    0.5094267478    0.2352507945          0.6536
N1210      N    0.4667979418    0.4960694927    0.2270005983         -0.3362
N1211      N    0.4662237459    0.5000663215    0.1982949190         -0.3395
C1212      C    0.4978547412    0.5135658870    0.2667994968          0.6506
H1213      H    0.4511353766    0.4893070228    0.1912087946         -0.3313
H1214      H    0.4686939167    0.4764953086    0.2294123710         -0.3213
H1215      H    0.5215258110    0.5191640615    0.2058556442           0.646
H1216      H    0.4864616944    0.5296818626    0.2303533398          0.6381
H1217      H    0.5230116620    0.4865622184    0.2169209396          -0.329
H1218      H    0.4924614014    0.4715307495    0.1888475696         -0.3177
O1219      O    0.4989302062    0.4942088946    0.2894470457         -0.3344
C1220      C    0.4792883824    0.5295805877    0.3095484771          0.6386
C1221      C    0.4776527407    0.5321653491    0.2793581539          0.6365
C1222      C    0.4958734219    0.4954594479    0.3448457613         -0.3351
H1223      H    0.4580668232    0.5266455146    0.2730977194          0.6406
H1224      H    0.4841592933    0.5481567304    0.3186281392          0.6245
H1225      H    0.4604059285    0.5232941919    0.3170788963          0.6435
H1226      H    0.4809554721    0.5522370430    0.2732566861          0.6211
H1227      H    0.5190192603    0.5184301022    0.3160230345          0.6472
C1228      C    0.5000398372    0.5088318634    0.3156984872          0.6545
H1229      H    0.5165837473    0.5236316128    0.2672221607          0.6429
C1230      C    0.4247754435    0.5026092038    0.1138063093         -0.3419
H1231      H    0.4213827376    0.4856208155    0.1261310251         -0.3289
H1232      H    0.4083354206    0.5041555691    0.1004025845          0.6568
H1233      H    0.4250355018    0.5201368588    0.1258267550          0.6447
H1234      H    0.4483464338    0.4819512993    0.0867566958         -0.3263
H1235      H    0.4504622282    0.5161204938    0.0845988666          0.6476
C1236      C    0.5080917053    0.5081069175    0.3718830252          0.6554
N1237      N    0.5000000000    0.5000000000    0.4003273990         -0.3382
N1238      N    0.4864332312    0.4892354138    0.3875275873         -0.3301
N1239      N    0.4867905313    0.4854525401    0.3615894902         -0.3273
H1240      H    0.5293023870    0.5058834448    0.3708537036         -0.3429
H1241      H    0.5049522191    0.5292067901    0.3706519543          0.6393
H1242      H    0.5006368076    0.4747487214    0.3436468900         -0.3192
C1151      C    0.5000000000    0.5996726010    0.5000000000           -0.34
C1152      C    0.4970829292    0.6128748261    0.5232318634         -0.3393
C1153      C    0.4981978333    0.6394880774    0.5244275155         -0.3382
C1154      C    0.5017767611    0.6559337928    0.5042106420         -0.3378
C1155      C    0.5041251178    0.6427611413    0.4815770260         -0.3389
C1156      C    0.5031747619    0.6162093668    0.4795986439           -0.34
C1157      C    0.5059062392    0.6872496049    0.5089884761         -0.3339
H1158      H    0.4966318750    0.6488476265    0.5432231652          -0.337
C1159      C    0.4923673916    0.5981968773    0.5491042758         -0.3399
H1160      H    0.5056818638    0.6076831053    0.4604244149         -0.3405
H1161      H    0.5076106509    0.6538701419    0.4639364571         -0.3383
C1162      C    0.4993098080    0.7113008267    0.4899229350         -0.3411
C1163      C    0.4892458080    0.7352507945    0.5075326004          0.6536
N1164      N    0.4986271283    0.7270005983    0.5334056998         -0.3362
N1165      N    0.4945897960    0.6982949190    0.5333402074         -0.3395
C1166      C    0.4862655681    0.7667994968    0.4999715790          0.6506
H1167      H    0.5028259694    0.6912087946    0.5499410160         -0.3313
H1168      H    0.5182547114    0.7294123710    0.5346310104         -0.3213
H1169      H    0.4844836105    0.7058556442    0.4757128954           0.646
H1170      H    0.4685498167    0.7303533398    0.5086709085          0.6381
H1171      H    0.5169098177    0.7169209396    0.4794046454          -0.329
H1172      H    0.5269176625    0.6888475696    0.5119485622         -0.3177
O1173      O    0.5055488594    0.7894470457    0.5019726936         -0.3344
C1174      C    0.4675147184    0.8095484771    0.5157698685          0.6386
C1175      C    0.4647037007    0.7793581539    0.5169758927          0.6365
C1176      C    0.5038303597    0.8448457613    0.5047930788         -0.3351
H1177      H    0.4670547354    0.7730977194    0.5371884969          0.6406
H1178      H    0.4499433870    0.8186281392    0.5080208581          0.6245
H1179      H    0.4707339718    0.8170788963    0.5354091721          0.6435
H1180      H    0.4454075136    0.7732566861    0.5105386497          0.6211
H1181      H    0.4848116887    0.8160230345    0.4783040066          0.6472
C1182      C    0.4912857143    0.8156984872    0.4985631202          0.6545
H1183      H    0.4792903197    0.7672221607    0.4798857528          0.6429
C1184      C    0.4855202171    0.6138063093    0.5738639136         -0.3419
H1185      H    0.5017577080    0.6261310251    0.5799020985         -0.3289
H1186      H    0.4813918832    0.6004025845    0.5898521110          0.6568
H1187      H    0.4682545470    0.6258267550    0.5708335745          0.6447
H1188      H    0.5096476978    0.5867566958    0.5538587823         -0.3263
H1189      H    0.4762438070    0.5845988666    0.5463627485          0.6476
C1190      C    0.4932756455    0.8718830252    0.4907274134          0.6554
N1191      N    0.5000000000    0.9003273990    0.5000000000         -0.3382
N1192      N    0.5084821707    0.8875275873    0.5150992156         -0.3301
N1193      N    0.5122739222    0.8615894902    0.5153450150         -0.3273
H1194      H    0.4988274598    0.8708537036    0.4701358081         -0.3429
H1195      H    0.4719448243    0.8706519543    0.4904885236          0.6393
H1196      H    0.5250339018    0.8436468900    0.5033669508         -0.3192
C1105      C    0.5000000000    1.0996726010    0.5000000000           -0.34
C1106      C    0.4959088841    1.1128748261    0.5230541005         -0.3393
C1107      C    0.4969617380    1.1394880774    0.5243047379         -0.3382
C1108      C    0.5015610075    1.1559337928    0.5042953047         -0.3378
C1109      C    0.5050538110    1.1427611413    0.4818098498         -0.3389
C1110      C    0.5042049761    1.1162093668    0.4797858312           -0.34
C1111      C    0.5054429513    1.1872496049    0.5092763487         -0.3339
H1112      H    0.4944449019    1.1488476265    0.5429968274          -0.337
C1113      C    0.4898877451    1.0981968773    0.5486541768         -0.3399
H1114      H    0.5076809385    1.1076831053    0.4607633628         -0.3405
H1115      H    0.5094291938    1.1538701419    0.4643686733         -0.3383
C1116      C    0.4998215771    1.2113008267    0.4899009026         -0.3411
C1117      C    0.4888777536    1.2352507945    0.5069777038          0.6536
N1118      N    0.4969353099    1.2270005983    0.5332931409         -0.3362
N1119      N    0.4929064897    1.1982949190    0.5330230502         -0.3395
C1120      C    0.4862846707    1.2667994968    0.4992753149          0.6506
H1121      H    0.5002904531    1.1912087946    0.5500200642         -0.3313
H1122      H    0.5164755329    1.2294123710    0.5355119442         -0.3213
H1123      H    0.4857348580    1.2058556442    0.4749574858           0.646
H1124      H    0.4681506668    1.2303533398    0.5070653141          0.6381
H1125      H    0.5179322046    1.2169209396    0.4802884145          -0.329
H1126      H    0.5262772862    1.1888475696    0.5132978539         -0.3177
O1127      O    0.5054417133    1.2894470457    0.5022514698         -0.3344
C1128      C    0.4667570005    1.3095484771    0.5141026683          0.6386
C1129      C    0.4638884552    1.2793581539    0.5151646302          0.6365
C1130      C    0.5035824372    1.3448457613    0.5049811046         -0.3351
H1131      H    0.4652117391    1.2730977194    0.5354704337          0.6406
H1132      H    0.4496011198    1.3186281392    0.5054728010          0.6245
H1133      H    0.4689764515    1.3170788963    0.5338799249          0.6435
H1134      H    0.4449434337    1.2732566861    0.5077573976          0.6211
H1135      H    0.4859311515    1.3160230345    0.4775618978          0.6472
C1136      C    0.4913697665    1.3156984872    0.4981231759          0.6545
H1137      H    0.4803366922    1.2672221607    0.4788616905          0.6429
C1138      C    0.4817941251    1.1138063093    0.5730348408         -0.3419
H1139      H    0.4977046149    1.1261310251    0.5798884603         -0.3289
H1140      H    0.4768605391    1.1004025845    0.5887931822          0.6568
H1141      H    0.4647042881    1.1258267550    0.5691330730          0.6447
H1142      H    0.5069047884    1.0867566958    0.5542786367         -0.3263
H1143      H    0.4739238829    1.0845988666    0.5450987503          0.6476
C1144      C    0.4937543891    1.3718830252    0.4903984297          0.6554
N1145      N    0.5000000000    1.4003273990    0.5000000000         -0.3382
N1146      N    0.5077057714    1.3875275873    0.5155098234         -0.3301
N1147      N    0.5114801855    1.3615894902    0.5159475388         -0.3273
H1148      H    0.5003430061    1.3708537036    0.4701147669         -0.3429
H1149      H    0.4724631093    1.3706519543    0.4890784289          0.6393
H1150      H    0.5248310138    1.3436468900    0.5046317761         -0.3192
C1059      C    0.5000000000    0.9003273990    0.0000000000           -0.34
C1060      C    0.5081273793    0.8871251739   -0.0219584718         -0.3393
C1061      C    0.5096680929    0.8605119226   -0.0225050949         -0.3382
C1062      C    0.5035186142    0.8440662072   -0.0029164602         -0.3378
C1063      C    0.4951625702    0.8572388587    0.0182488861         -0.3389
C1064      C    0.4934068242    0.8837906332    0.0195659009           -0.34
C1065      C    0.5093863438    0.8127503951   -0.0052509917         -0.3339
H1066      H    0.5169480888    0.8511523735   -0.0399042424          -0.337
C1067      C    0.5158769733    0.9018031227   -0.0470893654         -0.3399
H1068      H    0.4867872604    0.8923168947    0.0377350504         -0.3405
H1069      H    0.4901185363    0.8461298581    0.0355085597         -0.3383
C1070      C    0.4947396014    0.7886991733    0.0086227496         -0.3411
C1071      C    0.4939324912    0.7647492055   -0.0116437989          0.6536
N1072      N    0.5141901501    0.7729994017   -0.0302731762         -0.3362
N1073      N    0.5105777298    0.8017050810   -0.0320772718         -0.3395
C1074      C    0.4878007133    0.7332005032   -0.0063097410          0.6506
H1075      H    0.5255425206    0.8087912054   -0.0430077996         -0.3313
H1076      H    0.5321703263    0.7705876290   -0.0223072067         -0.3213
H1077      H    0.4750304001    0.7941443558    0.0143923895           0.646
H1078      H    0.4760945570    0.7696466602   -0.0221997406          0.6381
H1079      H    0.5055040743    0.7830790604    0.0260732762          -0.329
H1080      H    0.5293945218    0.8111524304    0.0018140512         -0.3177
O1081      O    0.5058332458    0.7105529543    0.0008090759         -0.3344
C1082      C    0.4784505134    0.6904515229   -0.0289758848          0.6386
C1083      C    0.4765126503    0.7206418461   -0.0313425284          0.6365
C1084      C    0.5056093618    0.6551542387   -0.0024860250         -0.3351
H1085      H    0.4879216499    0.7269022806   -0.0481922009          0.6406
H1086      H    0.4592857584    0.6813718608   -0.0302051189          0.6245
H1087      H    0.4903654264    0.6829211037   -0.0449164209          0.6435
H1088      H    0.4564225272    0.7267433139   -0.0345312405          0.6211
H1089      H    0.4765166356    0.6839769655    0.0122446938          0.6472
C1090      C    0.4916053021    0.6843015128   -0.0027445301          0.6545
H1091      H    0.4723472540    0.7327778393    0.0082945427          0.6429
C1092      C    0.5212219620    0.8861936907   -0.0722161352         -0.3419
H1093      H    0.5384141254    0.8738689749   -0.0700841627         -0.3289
H1094      H    0.5249335062    0.8995974155   -0.0883061953          0.6568
H1095      H    0.5045048822    0.8741732450   -0.0774911292          0.6447
H1096      H    0.5334023054    0.9132433042   -0.0433374261         -0.3263
H1097      H    0.5003064475    0.9154011334   -0.0520938312          0.6476
C1098      C    0.4897567203    0.6281169748    0.0051257223          0.6554
N1099      N    0.5000000000    0.5996726010    0.0000000000         -0.3382
N1100      N    0.5144904528    0.6124724127   -0.0094847409         -0.3301
N1101      N    0.5179681421    0.6384105098   -0.0079538998         -0.3273
H1102      H    0.4851848850    0.6291462964    0.0259568329         -0.3429
H1103      H    0.4707202918    0.6293480457   -0.0045010833          0.6393
H1104      H    0.5237648756    0.6563531100    0.0085593973         -0.3192
C1013      C    0.5000000000    1.4003273990    0.0000000000           -0.34
C1014      C    0.4905009259    1.3871251739   -0.0214008497         -0.3393
C1015      C    0.4912232288    1.3605119226   -0.0228674355         -0.3382
C1016      C    0.5004856689    1.3440662072   -0.0045442835         -0.3378
C1017      C    0.5092675467    1.3572388587    0.0164479527         -0.3389
C1018      C    0.5089287326    1.3837906332    0.0186164492           -0.34
C1019      C    0.5030601740    1.3127503951   -0.0103107565         -0.3339
H1020      H    0.4842983224    1.3511523735   -0.0404109341          -0.337
C1021      C    0.4785177155    1.4018031227   -0.0448106914         -0.3399
H1022      H    0.5168640006    1.3923168947    0.0362507379         -0.3405
H1023      H    0.5176968839    1.3461298581    0.0323314311         -0.3383
C1024      C    0.5022480654    1.2886991733    0.0098473248         -0.3411
C1025      C    0.4875292224    1.2647492055   -0.0041076052          0.6536
N1026      N    0.4890425788    1.2729994017   -0.0315873468         -0.3362
N1027      N    0.4851960180    1.3017050810   -0.0303592136         -0.3395
C1028      C    0.4868584367    1.2332005032    0.0039918342          0.6506
H1029      H    0.4882895434    1.3087912054   -0.0486308173         -0.3313
H1030      H    0.5074809285    1.2705876290   -0.0384262550         -0.3213
H1031      H    0.4921549216    1.2941443558    0.0277322292           0.646
H1032      H    0.4673856564    1.2696466602    0.0007767118          0.6381
H1033      H    0.5221350975    1.2830790604    0.0148373860          -0.329
H1034      H    0.5223226891    1.3111524304   -0.0192100557         -0.3177
O1035      O    0.5047432048    1.2105529543   -0.0034904682         -0.3344
C1036      C    0.4643454141    1.1904515229   -0.0057212561          0.6386
C1037      C    0.4613059246    1.2206418461   -0.0060645038          0.6365
C1038      C    0.5022837194    1.1551542387   -0.0056947244         -0.3351
H1039      H    0.4577222453    1.2269022806   -0.0260953295          0.6406
H1040      H    0.4497589341    1.1813718608    0.0067700790          0.6245
H1041      H    0.4617584847    1.1829211037   -0.0254538089          0.6435
H1042      H    0.4446893560    1.2267433139    0.0056688070          0.6211
H1043      H    0.4917210756    1.1839769655    0.0251567156          0.6472
C1044      C    0.4920714490    1.1843015128    0.0038912053          0.6545
H1045      H    0.4859781555    1.2327778393    0.0252361185          0.6429
C1046      C    0.4648148272    1.3861936907   -0.0665398036         -0.3419
H1047      H    0.4786180993    1.3738689749   -0.0770081113         -0.3289
H1048      H    0.4562470313    1.3995974155   -0.0806556979          0.6568
H1049      H    0.4491588907    1.3741732450   -0.0586545025          0.6447
H1050      H    0.4936899615    1.4132433042   -0.0543509882         -0.3263
H1051      H    0.4638718774    1.4154011334   -0.0375315856          0.6476
C1052      C    0.4962385495    1.1281169748    0.0108189323          0.6554
N1053      N    0.5000000000    1.0996726010    0.0000000000         -0.3382
N1054      N    0.5037625052    1.1124724127   -0.0169049427         -0.3301
N1055      N    0.5073218915    1.1384105098   -0.0182348172         -0.3273
H1056      H    0.5074980630    1.1291462964    0.0289313646         -0.3429
H1057      H    0.4758847241    1.1293480457    0.0172050729          0.6393
H1058      H    0.5229963130    1.1563531100   -0.0104499849         -0.3192
C967       C    0.5000000000    1.0000000000   -0.0996726010           -0.34
C968       C    0.5213880662    1.0095278226   -0.1128748261         -0.3393
C969       C    0.5228556212    1.0088074911   -0.1394880774         -0.3382
C970       C    0.5045449320    0.9995204378   -0.1559337928         -0.3378
C971       C    0.4835645153    0.9907103599   -0.1427611413         -0.3389
C972       C    0.4813955655    0.9910462599   -0.1162093668           -0.34
C973       C    0.5103148593    0.9969536837   -0.1872496049         -0.3339
H974       H    0.5403897988    1.0157559651   -0.1488476265          -0.337
C975       C    0.5447817845    1.0215424789   -0.0981968773         -0.3399
H976       H    0.4637719556    0.9830873032   -0.1076831053         -0.3405
H977       H    0.4676923781    0.9822596872   -0.1538701419         -0.3383
C978       C    0.4901557049    0.9977387044   -0.2113008267         -0.3411
C979       C    0.5040908441    1.0124762859   -0.2352507945          0.6536
N980       N    0.5315725944    1.0109998563   -0.2270005983         -0.3362
N981       N    0.5303392936    1.0148447634   -0.1982949190         -0.3395
C982       C    0.4959905106    1.0131361874   -0.2667994968          0.6506
H983       H    0.5486150376    1.0117757930   -0.1912087946         -0.3313
H984       H    0.5384362727    0.9925707130   -0.2294123710         -0.3213
H985       H    0.4722572541    1.0078078065   -0.2058556442           0.646
H986       H    0.4991794639    1.0326132704   -0.2303533398          0.6381
H987       H    0.4851923711    0.9778449850   -0.2169209396          -0.329
H988       H    0.5192400342    0.9777031442   -0.1888475696         -0.3177
O989       O    0.5034968387    0.9952614897   -0.2894470457         -0.3344
C990       C    0.5056733406    1.0356622416   -0.3095484771          0.6386
C991       C    0.5060125037    1.0387021896   -0.2793581539          0.6365
C992       C    0.5056977879    0.9977239349   -0.3448457613         -0.3351
H993       H    0.5260384958    1.0423127818   -0.2730977194          0.6406
H994       H    0.4931624164    1.0502319234   -0.3186281392          0.6245
H995       H    0.5254023994    1.0382756839   -0.3170788963          0.6435
H996       H    0.4942568752    1.0553029766   -0.2732566861          0.6211
H997       H    0.4748321824    1.0082451130   -0.3160230345          0.6472
C998       C    0.4960981443    1.0079233150   -0.3156984872          0.6545
H999       H    0.4747450627    1.0139879212   -0.2672221607          0.6429
C1000      C    0.5664924639    1.0352745530   -0.1138063093         -0.3419
H1001      H    0.5769793102    1.0214853599   -0.1261310251         -0.3289
H1002      H    0.5805968326    1.0438613091   -0.1004025845          0.6568
H1003      H    0.5585861326    1.0509198796   -0.1258267550          0.6447
H1004      H    0.5543424601    1.0063830662   -0.0867566958         -0.3263
H1005      H    0.5374830051    1.0361785225   -0.0845988666          0.6476
C1006      C    0.4891760230    1.0037469094   -0.3718830252          0.6554
N1007      N    0.5000000000    1.0000000000   -0.4003273990         -0.3382
N1008      N    0.5169099832    0.9962602140   -0.3875275873         -0.3301
N1009      N    0.5182446394    0.9927026178   -0.3615894902         -0.3273
H1010      H    0.4710787369    0.9924630676   -0.3708537036         -0.3429
H1011      H    0.4827625381    1.0240921351   -0.3706519543          0.6393
H1012      H    0.5104808764    0.9770177498   -0.3436468900         -0.3192
C921       C    0.5000000000    1.0000000000    0.0996726010           -0.34
C922       C    0.5234007559    1.0007958668    0.1128748261         -0.3393
C923       C    0.5244049225    1.0020859228    0.1394880774         -0.3382
C924       C    0.5038764388    1.0024206629    0.1559337928         -0.3378
C925       C    0.4811563855    1.0011579133    0.1427611413         -0.3389
C926       C    0.4793533127    0.9999064740    0.1162093668           -0.34
C927       C    0.5079406320    1.0072541524    0.1872496049         -0.3339
H928       H    0.5432115587    1.0035138977    0.1488476265          -0.337
C929       C    0.5496933795    1.0002337638    0.0981968773         -0.3399
H930       H    0.4600239415    0.9993478791    0.1076831053         -0.3405
H931       H    0.4631865258    1.0018081070    0.1538701419         -0.3383
C932       C    0.4901591127    0.9977239199    0.2113008267         -0.3411
C933       C    0.5091394278    0.9905732522    0.2352507945          0.6536
N934       N    0.5332020582    1.0039305073    0.2270005983         -0.3362
N935       N    0.5337762541    0.9999336785    0.1982949190         -0.3395
C936       C    0.5021452588    0.9864341130    0.2667994968          0.6506
H937       H    0.5488646234    1.0106929772    0.1912087946         -0.3313
H938       H    0.5313060833    1.0235046914    0.2294123710         -0.3213
H939       H    0.4784741890    0.9808359385    0.2058556442           0.646
H940       H    0.5135383056    0.9703181374    0.2303533398          0.6381
H941       H    0.4769883380    1.0134377816    0.2169209396          -0.329
H942       H    0.5075385986    1.0284692505    0.1888475696         -0.3177
O943       O    0.5010697938    1.0057911054    0.2894470457         -0.3344
C944       C    0.5207116176    0.9704194123    0.3095484771          0.6386
C945       C    0.5223472593    0.9678346509    0.2793581539          0.6365
C946       C    0.5041265781    1.0045405521    0.3448457613         -0.3351
H947       H    0.5419331768    0.9733544854    0.2730977194          0.6406
H948       H    0.5158407067    0.9518432696    0.3186281392          0.6245
H949       H    0.5395940715    0.9767058081    0.3170788963          0.6435
H950       H    0.5190445279    0.9477629570    0.2732566861          0.6211
H951       H    0.4809807397    0.9815698978    0.3160230345          0.6472
C952       C    0.4999601628    0.9911681366    0.3156984872          0.6545
H953       H    0.4834162527    0.9763683872    0.2672221607          0.6429
C954       C    0.5752245565    0.9973907962    0.1138063093         -0.3419
H955       H    0.5786172624    1.0143791845    0.1261310251         -0.3289
H956       H    0.5916645794    0.9958444309    0.1004025845          0.6568
H957       H    0.5749644982    0.9798631412    0.1258267550          0.6447
H958       H    0.5516535662    1.0180487007    0.0867566958         -0.3263
H959       H    0.5495377718    0.9838795062    0.0845988666          0.6476
C960       C    0.4919082947    0.9918930825    0.3718830252          0.6554
N961       N    0.5000000000    1.0000000000    0.4003273990         -0.3382
N962       N    0.5135667688    1.0107645862    0.3875275873         -0.3301
N963       N    0.5132094687    1.0145474599    0.3615894902         -0.3273
H964       H    0.4706976130    0.9941165552    0.3708537036         -0.3429
H965       H    0.4950477809    0.9707932099    0.3706519543          0.6393
H966       H    0.4993631924    1.0252512786    0.3436468900         -0.3192
C875       C    0.9003273990    0.5000000000    0.5000000000           -0.34
C876       C    0.8871251739    0.5159117684    0.4828231434         -0.3393
C877       C    0.8605119226    0.5157027741    0.4812017500         -0.3382
C878       C    0.8440662072    0.5010106005    0.4955429748         -0.3378
C879       C    0.8572388587    0.4859096526    0.5125652170         -0.3389
C880       C    0.8837906332    0.4855287015    0.5147267092           -0.34
C881       C    0.8127503951    0.5004400958    0.4892537132         -0.3339
H882       H    0.8511523735    0.5279308899    0.4668420196          -0.337
C883       C    0.9018031227    0.5348240248    0.4645489928         -0.3399
H884       H    0.8923168947    0.4723151866    0.5288454784         -0.3405
H885       H    0.8461298581    0.4727950547    0.5248674906         -0.3383
C886       C    0.7886991733    0.4946870565    0.5085904735         -0.3411
C887       C    0.7647492055    0.5131290088    0.5001477956          0.6536
N888       N    0.7729994017    0.5205871905    0.4736562504         -0.3362
N889       N    0.8017050810    0.5238295713    0.4760627640         -0.3395
C890       C    0.7332005032    0.5111434178    0.5080286777          0.6506
H891       H    0.8087912054    0.5268135758    0.4577729549         -0.3313
H892       H    0.7705876290    0.5053529101    0.4612200087         -0.3213
H893       H    0.7941443558    0.4984513520    0.5287788722           0.646
H894       H    0.7696466602    0.5306091459    0.5112862249          0.6381
H895       H    0.7830790604    0.4742551319    0.5068783959          -0.329
H896       H    0.8111524304    0.4850925423    0.4746012521         -0.3177
O897       O    0.7105529543    0.4966410975    0.4951627348         -0.3344
C898       C    0.6904515229    0.5355880923    0.5061212706          0.6386
C899       C    0.7206418461    0.5385751719    0.5067798074          0.6365
C900       C    0.6551542387    0.4996814314    0.4938727026         -0.3351
H901       H    0.7269022806    0.5484464352    0.4889855696          0.6406
H902       H    0.6813718608    0.5453489929    0.5226598217          0.6245
H903       H    0.6829211037    0.5444197121    0.4882868003          0.6435
H904       H    0.7267433139    0.5505022214    0.5232578662          0.6211
H905       H    0.6839769655    0.4996950883    0.5264822197          0.6472
C906       C    0.6843015128    0.5062433035    0.5062469641          0.6545
H907       H    0.7327778393    0.5051034803    0.5284152827          0.6429
C908       C    0.8861936907    0.5548197351    0.4484215307         -0.3419
H909       H    0.8738689749    0.5451454404    0.4340505944         -0.3289
H910       H    0.8995974155    0.5674935028    0.4378365787          0.6568
H911       H    0.8741732450    0.5670827081    0.4609477358          0.6447
H912       H    0.9132433042    0.5235541493    0.4506132755         -0.3263
H913       H    0.9154011334    0.5463273342    0.4761748187          0.6476
C914       C    0.6281169748    0.5000590644    0.5114540088          0.6554
N915       N    0.5996726010    0.5000000000    0.5000000000         -0.3382
N916       N    0.6124724127    0.5019088632    0.4827869301         -0.3301
N917       N    0.6384105098    0.4989711284    0.4803770523         -0.3273
H918       H    0.6291462964    0.4835453864    0.5249497595         -0.3429
H919       H    0.6293480457    0.5172522889    0.5240815197          0.6393
H920       H    0.6563531100    0.4816211156    0.4826722995         -0.3192
C829       C    1.0996726010    0.5000000000    0.5000000000           -0.34
C830       C    1.1128748261    0.5169838637    0.4838823962         -0.3393
C831       C    1.1394880774    0.5186076579    0.4840718367         -0.3382
C832       C    1.1559337928    0.5044445232    0.4989357633         -0.3378
C833       C    1.1427611413    0.4876054919    0.5142407422         -0.3389
C834       C    1.1162093668    0.4854487474    0.5146477129           -0.34
C835       C    1.1872496049    0.5107402031    0.4994304374         -0.3339
H836       H    1.1488476265    0.5328189899    0.4716715659          -0.337
C837       C    1.0981968773    0.5350287841    0.4647512993         -0.3399
H838       H    1.1076831053    0.4714902336    0.5280304073         -0.3405
H839       H    1.1538701419    0.4754621499    0.5275026371         -0.3383
C840       C    1.2113008267    0.4914741742    0.5054160777         -0.3411
C841       C    1.2352507945    0.4996940032    0.4868737255          0.6536
N842       N    1.2270005983    0.5260937496    0.4790968474         -0.3362
N843       N    1.1982949190    0.5236483382    0.4758837019         -0.3395
C844       C    1.2667994968    0.4918376209    0.4889541414          0.6506
H845       H    1.1912087946    0.5419008603    0.4726795116         -0.3313
H846       H    1.2294123710    0.5387126698    0.4941801580         -0.3213
H847       H    1.2058556442    0.4712418796    0.5018953371           0.646
H848       H    1.2303533398    0.4883457372    0.4695290820          0.6381
H849       H    1.2169209396    0.4934323437    0.5258258873          -0.329
H850       H    1.1888475696    0.5255765469    0.5146003061         -0.3177
O851       O    1.2894470457    0.5048773906    0.5033003668         -0.3344
C852       C    1.3095484771    0.4934503174    0.4644882565          0.6386
C853       C    1.2793581539    0.4927558325    0.4615093295          0.6365
C854       C    1.3448457613    0.5061306915    0.5002447081         -0.3351
H855       H    1.2730977194    0.5104298239    0.4514243524          0.6406
H856       H    1.3186281392    0.4767953429    0.4549273635          0.6245
H857       H    1.3170788963    0.5111770668    0.4554423626          0.6435
H858       H    1.2732566861    0.4761352425    0.4497817159          0.6211
H859       H    1.3160230345    0.4735233776    0.5006240151          0.6472
C860       C    1.3156984872    0.4936782542    0.4938324292          0.6545
H861       H    1.2672221607    0.4715252808    0.4952393103          0.6429
C862       C    1.1138063093    0.5509141156    0.4445626959         -0.3419
H863       H    1.1261310251    0.5654005891    0.4540631103         -0.3289
H864       H    1.1004025845    0.5613455730    0.4317622939          0.6568
H865       H    1.1258267550    0.5382410444    0.4324515611          0.6447
H866       H    1.0867566958    0.5490992978    0.4758524233         -0.3263
H867       H    1.0845988666    0.5232651810    0.4533889229          0.6476
C868       C    1.3718830252    0.4885461111    0.5000789671          0.6554
N869       N    1.4003273990    0.5000000000    0.5000000000         -0.3382
N870       N    1.3875275873    0.5171888171    0.4978838483         -0.3301
N871       N    1.3615894902    0.5196339213    0.5007923294         -0.3273
H872       H    1.3708537036    0.4752503394    0.5167540774         -0.3429
H873       H    1.3706519543    0.4757123291    0.4830391596          0.6393
H874       H    1.3436468900    0.5175479182    0.5181687414         -0.3192
C783       C    0.5996726010    0.5000000000    0.0000000000           -0.34
C784       C    0.6128748261    0.5233305106   -0.0019789025         -0.3393
C785       C    0.6394880774    0.5244802829   -0.0008167412         -0.3382
C786       C    0.6559337928    0.5041356551    0.0019449276         -0.3378
C787       C    0.6427611413    0.4814258146    0.0033796755         -0.3389
C788       C    0.6162093668    0.4794873194    0.0023503998           -0.34
C789       C    0.6872496049    0.5087432722    0.0062635098         -0.3339
H790       H    0.6488476265    0.5433237562   -0.0016243225          -0.337
C791       C    0.5981968773    0.5493718710   -0.0056484482         -0.3399
H792       H    0.6076831053    0.4602276639    0.0040831113         -0.3405
H793       H    0.6538701419    0.4636591624    0.0061518013         -0.3383
C794       C    0.7113008267    0.4899589152   -0.0010955453         -0.3411
C795       C    0.7352507945    0.5079596757   -0.0104420438          0.6536
N796       N    0.7270005983    0.5334338881   -0.0000261451         -0.3362
N797       N    0.6982949190    0.5335310763   -0.0040628388         -0.3395
C798       C    0.7667994968    0.5005248377   -0.0137244297          0.6506
H799       H    0.6912087946    0.5497866509    0.0048353459         -0.3313
H800       H    0.7294123710    0.5338675871    0.0196348648         -0.3213
H801       H    0.7058556442    0.4763576214   -0.0164821032           0.646
H802       H    0.7303533398    0.5099307135   -0.0310753860          0.6381
H803       H    0.7169209396    0.4787402177    0.0160664937          -0.329
H804       H    0.6888475696    0.5108545964    0.0273771150         -0.3177
O805       O    0.7894470457    0.5017475793    0.0056238178         -0.3344
C806       C    0.8095484771    0.5170656066   -0.0318236915          0.6386
C807       C    0.7793581539    0.5183838824   -0.0345838481          0.6365
C808       C    0.8448457613    0.5046348983    0.0040203206         -0.3351
H809       H    0.7730977194    0.5384853801   -0.0314205391          0.6406
H810       H    0.8186281392    0.5100306748   -0.0496928993          0.6245
H811       H    0.8170788963    0.5365592964   -0.0278159616          0.6435
H812       H    0.7732566861    0.5127291321   -0.0541236723          0.6211
H813       H    0.8160230345    0.4789334144   -0.0160499190          0.6472
C814       C    0.8156984872    0.4989153058   -0.0087650920          0.6545
H815       H    0.7672221607    0.4807362826   -0.0215030926          0.6429
C816       C    0.6138063093    0.5743872242   -0.0114927246         -0.3419
H817       H    0.6261310251    0.5797664475    0.0049748116         -0.3289
H818       H    0.6004025845    0.5905287386   -0.0149736886          0.6568
H819       H    0.6258267550    0.5720548217   -0.0288664466          0.6447
H820       H    0.5867566958    0.5534264520    0.0118093490         -0.3263
H821       H    0.5845988666    0.5472820416   -0.0218693781          0.6476
C822       C    0.8718830252    0.4910058022   -0.0070924053          0.6554
N823       N    0.9003273990    0.5000000000    0.0000000000         -0.3382
N824       N    0.8875275873    0.5147452914    0.0090834968         -0.3301
N825       N    0.8615894902    0.5148381560    0.0128820720         -0.3273
H826       H    0.8708537036    0.4702072770   -0.0023745457         -0.3429
H827       H    0.8706519543    0.4916263315   -0.0284155370          0.6393
H828       H    0.8436468900    0.5023558295    0.0251492080         -0.3192
C737       C    1.4003273990    0.5000000000    0.0000000000           -0.34
C738       C    1.3871251739    0.5089084406    0.0216533707         -0.3393
C739       C    1.3605119226    0.5104677393    0.0221444745         -0.3382
C740       C    1.3440662072    0.5036207883    0.0027885979         -0.3378
C741       C    1.3572388587    0.4945122293   -0.0180639681         -0.3389
C742       C    1.3837906332    0.4927104505   -0.0193172698           -0.34
C743       C    1.3127503951    0.5095683483    0.0049115248         -0.3339
H744       H    1.3511523735    0.5183660829    0.0392717873          -0.337
C745       C    1.4018031227    0.5175529341    0.0464906563         -0.3399
H746       H    1.3923168947    0.4854445437   -0.0372377390         -0.3405
H747       H    1.3461298581    0.4888534080   -0.0351319601         -0.3383
C748       C    1.2886991733    0.4944342175   -0.0084288593         -0.3411
C749       C    1.2647492055    0.4943533150    0.0118535929          0.6536
N750       N    1.2729994017    0.5152650505    0.0297456516         -0.3362
N751       N    1.3017050810    0.5117195466    0.0316779413         -0.3395
C752       C    1.2332005032    0.4880344713    0.0067425180          0.6506
H753       H    1.3087912054    0.5270661331    0.0420656109         -0.3313
H754       H    1.2705876290    0.5329484565    0.0211409693         -0.3213
H755       H    1.2941443558    0.4745310604   -0.0134890662           0.646
H756       H    1.2696466602    0.4769047997    0.0230414933          0.6381
H757       H    1.2830790604    0.5045669313   -0.0262536417          -0.329
H758       H    1.3111524304    0.5293107152   -0.0028654259         -0.3177
O759       O    1.2105529543    0.5058005342   -0.0010174297         -0.3344
C760       C    1.1904515229    0.4795018806    0.0297289316          0.6386
C761       C    1.2206418461    0.4776500033    0.0321634471          0.6365
C762       C    1.1551542387    0.5056947824    0.0022835747         -0.3351
H763       H    1.2269022806    0.4896550276    0.0485937888          0.6406
H764       H    1.1813718608    0.4603934313    0.0316436153          0.6245
H765       H    1.1829211037    0.4919799400    0.0452326045          0.6435
H766       H    1.2267433139    0.4576869429    0.0360694872          0.6211
H767       H    1.1839769655    0.4760932459   -0.0113959659          0.6472
C768       C    1.1843015128    0.4917089597    0.0030433615          0.6545
H769       H    1.2327778393    0.4720679823   -0.0072990537          0.6429
C770       C    1.3861936907    0.5237942165    0.0714099230         -0.3419
H771       H    1.3738689749    0.5408990146    0.0686637131         -0.3289
H772       H    1.3995974155    0.5280795219    0.0873567646          0.6568
H773       H    1.3741732450    0.5072767403    0.0772801276          0.6447
H774       H    1.4132433042    0.5349326806    0.0421135884         -0.3263
H775       H    1.4154011334    0.5021715897    0.0520494511          0.6476
C776       C    1.1281169748    0.4895797510   -0.0047556512          0.6554
N777       N    1.0996726010    0.5000000000    0.0000000000         -0.3382
N778       N    1.1124724127    0.5148207831    0.0089597947         -0.3301
N779       N    1.1384105098    0.5182414269    0.0073054087         -0.3273
H780       H    1.1291462964    0.4842649420   -0.0254096981         -0.3429
H781       H    1.1293480457    0.4709002400    0.0055466237          0.6393
H782       H    1.1563531100    0.5234431468   -0.0094048640         -0.3192
C691       C    1.0000000000    0.5000000000   -0.0996726010           -0.34
C692       C    0.9765992441    0.5007958668   -0.1128748261         -0.3393
C693       C    0.9755950775    0.5020859228   -0.1394880774         -0.3382
C694       C    0.9961235612    0.5024206629   -0.1559337928         -0.3378
C695       C    1.0188436145    0.5011579133   -0.1427611413         -0.3389
C696       C    1.0206466873    0.4999064740   -0.1162093668           -0.34
C697       C    0.9920593680    0.5072541524   -0.1872496049         -0.3339
H698       H    0.9567884413    0.5035138977   -0.1488476265          -0.337
C699       C    0.9503066205    0.5002337638   -0.0981968773         -0.3399
H700       H    1.0399760585    0.4993478791   -0.1076831053         -0.3405
H701       H    1.0368134742    0.5018081070   -0.1538701419         -0.3383
C702       C    1.0098408873    0.4977239199   -0.2113008267         -0.3411
C703       C    0.9908605722    0.4905732522   -0.2352507945          0.6536
N704       N    0.9667979418    0.5039305073   -0.2270005983         -0.3362
N705       N    0.9662237459    0.4999336785   -0.1982949190         -0.3395
C706       C    0.9978547412    0.4864341130   -0.2667994968          0.6506
H707       H    0.9511353766    0.5106929772   -0.1912087946         -0.3313
H708       H    0.9686939167    0.5235046914   -0.2294123710         -0.3213
H709       H    1.0215258110    0.4808359385   -0.2058556442           0.646
H710       H    0.9864616944    0.4703181374   -0.2303533398          0.6381
H711       H    1.0230116620    0.5134377816   -0.2169209396          -0.329
H712       H    0.9924614014    0.5284692505   -0.1888475696         -0.3177
O713       O    0.9989302062    0.5057911054   -0.2894470457         -0.3344
C714       C    0.9792883824    0.4704194123   -0.3095484771          0.6386
C715       C    0.9776527407    0.4678346509   -0.2793581539          0.6365
C716       C    0.9958734219    0.5045405521   -0.3448457613         -0.3351
H717       H    0.9580668232    0.4733544854   -0.2730977194          0.6406
H718       H    0.9841592933    0.4518432696   -0.3186281392          0.6245
H719       H    0.9604059285    0.4767058081   -0.3170788963          0.6435
H720       H    0.9809554721    0.4477629570   -0.2732566861          0.6211
H721       H    1.0190192603    0.4815698978   -0.3160230345          0.6472
C722       C    1.0000398372    0.4911681366   -0.3156984872          0.6545
H723       H    1.0165837473    0.4763683872   -0.2672221607          0.6429
C724       C    0.9247754435    0.4973907962   -0.1138063093         -0.3419
H725       H    0.9213827376    0.5143791845   -0.1261310251         -0.3289
H726       H    0.9083354206    0.4958444309   -0.1004025845          0.6568
H727       H    0.9250355018    0.4798631412   -0.1258267550          0.6447
H728       H    0.9483464338    0.5180487007   -0.0867566958         -0.3263
H729       H    0.9504622282    0.4838795062   -0.0845988666          0.6476
C730       C    1.0080917053    0.4918930825   -0.3718830252          0.6554
N731       N    1.0000000000    0.5000000000   -0.4003273990         -0.3382
N732       N    0.9864332312    0.5107645862   -0.3875275873         -0.3301
N733       N    0.9867905313    0.5145474599   -0.3615894902         -0.3273
H734       H    1.0293023870    0.4941165552   -0.3708537036         -0.3429
H735       H    1.0049522191    0.4707932099   -0.3706519543          0.6393
H736       H    1.0006368076    0.5252512786   -0.3436468900         -0.3192
C645       C    1.0000000000    0.5000000000    0.0996726010           -0.34
C646       C    0.9765992441    0.4992041332    0.1128748261         -0.3393
C647       C    0.9755950775    0.4979140772    0.1394880774         -0.3382
C648       C    0.9961235612    0.4975793371    0.1559337928         -0.3378
C649       C    1.0188436145    0.4988420867    0.1427611413         -0.3389
C650       C    1.0206466873    0.5000935260    0.1162093668           -0.34
C651       C    0.9920593680    0.4927458476    0.1872496049         -0.3339
H652       H    0.9567884413    0.4964861023    0.1488476265          -0.337
C653       C    0.9503066205    0.4997662362    0.0981968773         -0.3399
H654       H    1.0399760585    0.5006521209    0.1076831053         -0.3405
H655       H    1.0368134742    0.4981918930    0.1538701419         -0.3383
C656       C    1.0098408873    0.5022760801    0.2113008267         -0.3411
C657       C    0.9908605722    0.5094267478    0.2352507945          0.6536
N658       N    0.9667979418    0.4960694927    0.2270005983         -0.3362
N659       N    0.9662237459    0.5000663215    0.1982949190         -0.3395
C660       C    0.9978547412    0.5135658870    0.2667994968          0.6506
H661       H    0.9511353766    0.4893070228    0.1912087946         -0.3313
H662       H    0.9686939167    0.4764953086    0.2294123710         -0.3213
H663       H    1.0215258110    0.5191640615    0.2058556442           0.646
H664       H    0.9864616944    0.5296818626    0.2303533398          0.6381
H665       H    1.0230116620    0.4865622184    0.2169209396          -0.329
H666       H    0.9924614014    0.4715307495    0.1888475696         -0.3177
O667       O    0.9989302062    0.4942088946    0.2894470457         -0.3344
C668       C    0.9792883824    0.5295805877    0.3095484771          0.6386
C669       C    0.9776527407    0.5321653491    0.2793581539          0.6365
C670       C    0.9958734219    0.4954594479    0.3448457613         -0.3351
H671       H    0.9580668232    0.5266455146    0.2730977194          0.6406
H672       H    0.9841592933    0.5481567304    0.3186281392          0.6245
H673       H    0.9604059285    0.5232941919    0.3170788963          0.6435
H674       H    0.9809554721    0.5522370430    0.2732566861          0.6211
H675       H    1.0190192603    0.5184301022    0.3160230345          0.6472
C676       C    1.0000398372    0.5088318634    0.3156984872          0.6545
H677       H    1.0165837473    0.5236316128    0.2672221607          0.6429
C678       C    0.9247754435    0.5026092038    0.1138063093         -0.3419
H679       H    0.9213827376    0.4856208155    0.1261310251         -0.3289
H680       H    0.9083354206    0.5041555691    0.1004025845          0.6568
H681       H    0.9250355018    0.5201368588    0.1258267550          0.6447
H682       H    0.9483464338    0.4819512993    0.0867566958         -0.3263
H683       H    0.9504622282    0.5161204938    0.0845988666          0.6476
C684       C    1.0080917053    0.5081069175    0.3718830252          0.6554
N685       N    1.0000000000    0.5000000000    0.4003273990         -0.3382
N686       N    0.9864332312    0.4892354138    0.3875275873         -0.3301
N687       N    0.9867905313    0.4854525401    0.3615894902         -0.3273
H688       H    1.0293023870    0.5058834448    0.3708537036         -0.3429
H689       H    1.0049522191    0.5292067901    0.3706519543          0.6393
H690       H    1.0006368076    0.4747487214    0.3436468900         -0.3192
C599       C    1.0000000000   -0.0996726010    0.5000000000           -0.34
C600       C    0.9963727981   -0.1128748261    0.4768683726         -0.3393
C601       C    0.9974505612   -0.1394880774    0.4756391363         -0.3382
C602       C    1.0016469725   -0.1559337928    0.4957369180         -0.3378
C603       C    1.0046874051   -0.1427611413    0.5182879961         -0.3389
C604       C    1.0037980849   -0.1162093668    0.5202945558           -0.34
C605       C    1.0056281875   -0.1872496049    0.4908348557         -0.3339
H606       H    0.9953097016   -0.1488476265    0.4569002624          -0.337
C607       C    0.9908671037   -0.0981968773    0.4511525147         -0.3399
H608       H    1.0068912410   -0.1076831053    0.5393830079         -0.3405
H609       H    1.0087115635   -0.1538701419    0.5358135421         -0.3383
C610       C    0.9996187521   -0.2113008267    0.5100934758         -0.3411
C611       C    0.9890201591   -0.2352507945    0.4928002911          0.6536
N612       N    0.9976046888   -0.2270005983    0.4666520159         -0.3362
N613       N    0.9935712561   -0.1982949190    0.4668411250         -0.3395
C614       C    0.9862728812   -0.2667994968    0.5004490385          0.6506
H615       H    1.0012951494   -0.1912087946    0.4499958625         -0.3313
H616       H    1.0171855385   -0.2294123710    0.4648261655         -0.3213
H617       H    0.9852347063   -0.2058556442    0.5247509170           0.646
H618       H    0.9682990141   -0.2303533398    0.4922963527          0.6381
H619       H    1.0175326392   -0.2169209396    0.5200678132          -0.329
H620       H    1.0265390989   -0.1888475696    0.4872326620         -0.3177
O621       O    1.0054858407   -0.2894470457    0.4978582924         -0.3344
C622       C    0.9670469886   -0.3095484771    0.4852324237          0.6386
C623       C    0.9642003537   -0.2793581539    0.4841130555          0.6365
C624       C    1.0036817701   -0.3448457613    0.4950918609         -0.3351
H625       H    0.9659312541   -0.2730977194    0.4638379299          0.6406
H626       H    0.9497212209   -0.3186281392    0.4935159390          0.6245
H627       H    0.9696632583   -0.3170788963    0.4655037397          0.6435
H628       H    0.9451103653   -0.2732566861    0.4911382442          0.6211
H629       H    0.9854832751   -0.3160230345    0.5221509735          0.6472
C630       C    0.9913338079   -0.3156984872    0.5017030896          0.6545
H631       H    0.9799160536   -0.2672221607    0.5207390669          0.6429
C632       C    0.9832648520   -0.1138063093    0.4266141930         -0.3419
H633       H    0.9993098006   -0.1261310251    0.4200815509         -0.3289
H634       H    0.9786487999   -0.1004025845    0.4107599299          0.6568
H635       H    0.9661000882   -0.1258267550    0.4301718893          0.6447
H636       H    1.0079936923   -0.0867566958    0.4458710116         -0.3263
H637       H    0.9748350444   -0.0845988666    0.4543865571          0.6476
C638       C    0.9935627822   -0.3718830252    0.5094741772          0.6554
N639       N    1.0000000000   -0.4003273990    0.5000000000         -0.3382
N640       N    1.0080157630   -0.3875275873    0.4846480921         -0.3301
N641       N    1.0117982080   -0.3615894902    0.4842862818         -0.3273
H642       H    0.9997426310   -0.3708537036    0.5298860932         -0.3429
H643       H    0.9722492833   -0.3706519543    0.5103662329          0.6393
H644       H    1.0249190425   -0.3436468900    0.4958679400         -0.3192
C553       C    1.0000000000    0.0996726010    0.5000000000           -0.34
C554       C    0.9963727981    0.1128748261    0.5231316274         -0.3393
C555       C    0.9974505612    0.1394880774    0.5243608637         -0.3382
C556       C    1.0016469725    0.1559337928    0.5042630820         -0.3378
C557       C    1.0046874051    0.1427611413    0.4817120039         -0.3389
C558       C    1.0037980849    0.1162093668    0.4797054442           -0.34
C559       C    1.0056281875    0.1872496049    0.5091651443         -0.3339
H560       H    0.9953097016    0.1488476265    0.5430997376          -0.337
C561       C    0.9908671037    0.0981968773    0.5488474853         -0.3399
H562       H    1.0068912410    0.1076831053    0.4606169921         -0.3405
H563       H    1.0087115635    0.1538701419    0.4641864579         -0.3383
C564       C    0.9996187521    0.2113008267    0.4899065242         -0.3411
C565       C    0.9890201591    0.2352507945    0.5071997089          0.6536
N566       N    0.9976046888    0.2270005983    0.5333479841         -0.3362
N567       N    0.9935712561    0.1982949190    0.5331588750         -0.3395
C568       C    0.9862728812    0.2667994968    0.4995509615          0.6506
H569       H    1.0012951494    0.1912087946    0.5500041375         -0.3313
H570       H    1.0171855385    0.2294123710    0.5351738345         -0.3213
H571       H    0.9852347063    0.2058556442    0.4752490830           0.646
H572       H    0.9682990141    0.2303533398    0.5077036473          0.6381
H573       H    1.0175326392    0.2169209396    0.4799321868          -0.329
H574       H    1.0265390989    0.1888475696    0.5127673380         -0.3177
O575       O    1.0054858407    0.2894470457    0.5021417076         -0.3344
C576       C    0.9670469886    0.3095484771    0.5147675763          0.6386
C577       C    0.9642003537    0.2793581539    0.5158869445          0.6365
C578       C    1.0036817701    0.3448457613    0.5049081391         -0.3351
H579       H    0.9659312541    0.2730977194    0.5361620701          0.6406
H580       H    0.9497212209    0.3186281392    0.5064840610          0.6245
H581       H    0.9696632583    0.3170788963    0.5344962603          0.6435
H582       H    0.9451103653    0.2732566861    0.5088617558          0.6211
H583       H    0.9854832751    0.3160230345    0.4778490265          0.6472
C584       C    0.9913338079    0.3156984872    0.4982969104          0.6545
H585       H    0.9799160536    0.2672221607    0.4792609331          0.6429
C586       C    0.9832648520    0.1138063093    0.5733858070         -0.3419
H587       H    0.9993098006    0.1261310251    0.5799184491         -0.3289
H588       H    0.9786487999    0.1004025845    0.5892400701          0.6568
H589       H    0.9661000882    0.1258267550    0.5698281107          0.6447
H590       H    1.0079936923    0.0867566958    0.5541289884         -0.3263
H591       H    0.9748350444    0.0845988666    0.5456134429          0.6476
C592       C    0.9935627822    0.3718830252    0.4905258228          0.6554
N593       N    1.0000000000    0.4003273990    0.5000000000         -0.3382
N594       N    1.0080157630    0.3875275873    0.5153519079         -0.3301
N595       N    1.0117982080    0.3615894902    0.5157137182         -0.3273
H596       H    0.9997426310    0.3708537036    0.4701139068         -0.3429
H597       H    0.9722492833    0.3706519543    0.4896337671          0.6393
H598       H    1.0249190425    0.3436468900    0.5041320600         -0.3192
C507       C    0.5996726010   -0.0000000000    0.5000000000           -0.34
C508       C    0.6128748261    0.0231543320    0.5034793231         -0.3393
C509       C    0.6394880774    0.0240036219    0.5048762132         -0.3382
C510       C    0.6559337928    0.0035726336    0.5028500308         -0.3378
C511       C    0.6427611413   -0.0188518595    0.4989851291         -0.3389
C512       C    0.6162093668   -0.0204992016    0.4975348063           -0.34
C513       C    0.6872496049    0.0070545465    0.5081184813         -0.3339
H514       H    0.6488476265    0.0425216316    0.5084555975          -0.337
C515       C    0.5981968773    0.0493374090    0.5059419432         -0.3399
H516       H    0.6076831053   -0.0396363753    0.4947589824         -0.3405
H517       H    0.6538701419   -0.0367774144    0.4975662949         -0.3383
C518       C    0.7113008267   -0.0095141930    0.4966082844         -0.3411
C519       C    0.7352507945    0.0101620243    0.4916857966          0.6536
N520       N    0.7270005983    0.0325305543    0.5077193648         -0.3362
N521       N    0.6982949190    0.0335601796    0.5038149810         -0.3395
C522       C    0.7667994968    0.0036897602    0.4867704461          0.6506
H523       H    0.6912087946    0.0473123867    0.5162366635         -0.3313
H524       H    0.7294123710    0.0283980788    0.5269460663         -0.3213
H525       H    0.7058556442   -0.0191813144    0.4784895614           0.646
H526       H    0.7303533398    0.0168590647    0.4720702556          0.6381
H527       H    0.7169209396   -0.0244032493    0.5107047647          -0.329
H528       H    0.6888475696    0.0042175787    0.5291468818         -0.3177
O529       O    0.7894470457    0.0003973156    0.5058756702         -0.3344
C530       C    0.8095484771    0.0239732325    0.4729950673          0.6386
C531       C    0.7793581539    0.0258950286    0.4706153582          0.6365
C532       C    0.8448457613    0.0035775428    0.5049846211         -0.3351
H533       H    0.7730977194    0.0447170073    0.4783490412          0.6406
H534       H    0.8186281392    0.0212689642    0.4539822878          0.6245
H535       H    0.8170788963    0.0420083294    0.4814094074          0.6435
H536       H    0.7732566861    0.0249203915    0.4502971148          0.6211
H537       H    0.8160230345   -0.0167756955    0.4795066604          0.6472
C538       C    0.8156984872    0.0009752004    0.4912220513          0.6545
H539       H    0.7672221607   -0.0137586633    0.4746194369          0.6429
C540       C    0.6138063093    0.0750261517    0.5060513150         -0.3419
H541       H    0.6261310251    0.0764444366    0.5233170109         -0.3289
H542       H    0.6004025845    0.0915349709    0.5064041358          0.6568
H543       H    0.6258267550    0.0767817285    0.4886098623          0.6447
H544       H    0.5867566958    0.0492376924    0.5238641185         -0.3263
H545       H    0.5845988666    0.0510619223    0.4896781181          0.6476
C546       C    0.8718830252   -0.0071066372    0.4910170431          0.6554
N547       N    0.9003273990   -0.0000000000    0.5000000000         -0.3382
N548       N    0.8875275873    0.0122400764    0.5122521044         -0.3301
N549       N    0.8615894902    0.0114504935    0.5159688713         -0.3273
H550       H    0.8708537036   -0.0284323192    0.4907887007         -0.3429
H551       H    0.8706519543   -0.0015635857    0.4704176359          0.6393
H552       H    0.8436468900   -0.0035339409    0.5250108748         -0.3192
C461       C    1.4003273990   -0.0000000000    0.5000000000           -0.34
C462       C    1.3871251739   -0.0061915261    0.5225808278         -0.3393
C463       C    1.3605119226   -0.0052580047    0.5239228908         -0.3382
C464       C    1.3440662072    0.0011598490    0.5044205358         -0.3378
C465       C    1.3572388587    0.0067033575    0.4823509896         -0.3389
C466       C    1.3837906332    0.0060440340    0.4802575559           -0.34
C467       C    1.3127503951    0.0045678309    0.5097371087         -0.3339
H468       H    1.3511523735   -0.0094812206    0.5423047602          -0.337
C469       C    1.4018031227   -0.0145387839    0.5475195789         -0.3399
H470       H    1.3923168947    0.0112526691    0.4616348081         -0.3405
H471       H    1.3461298581    0.0126623558    0.4653854672         -0.3383
C472       C    1.2886991733    0.0007500158    0.4899272109         -0.3411
C473       C    1.2647492055   -0.0117161816    0.5059265338          0.6536
N474       N    1.2729994017   -0.0061099792    0.5328708642         -0.3362
N475       N    1.3017050810   -0.0100969559    0.5322318355         -0.3395
C476       C    1.2332005032   -0.0135907741    0.4980185141          0.6506
H477       H    1.3087912054   -0.0043055253    0.5498352649         -0.3313
H478       H    1.2705876290    0.0131438147    0.5368752153         -0.3213
H479       H    1.2941443558   -0.0119044715    0.4737529935           0.646
H480       H    1.2696466602   -0.0323636841    0.5041098219          0.6381
H481       H    1.2830790604    0.0196670588    0.4820189722          -0.329
H482       H    1.3111524304    0.0249446723    0.5156554148         -0.3177
O483       O    1.2105529543    0.0052118905    0.5027418165         -0.3344
C484       C    1.1904515229   -0.0343978965    0.5109894033          0.6386
C485       C    1.2206418461   -0.0373518638    0.5117833761          0.6365
C486       C    1.1551542387    0.0031097360    0.5052891211         -0.3351
H487       H    1.2269022806   -0.0378994281    0.5321248831          0.6406
H488       H    1.1813718608   -0.0506885203    0.5008201148          0.6245
H489       H    1.1829211037   -0.0340045313    0.5308869184          0.6435
H490       H    1.2267433139   -0.0555363730    0.5026672060          0.6211
H491       H    1.1839769655   -0.0119482443    0.4763644254          0.6472
C492       C    1.1843015128   -0.0084213442    0.4973383536          0.6545
H493       H    1.2327778393   -0.0176384474    0.4771448261          0.6429
C494       C    1.3861936907   -0.0248377475    0.5710536990         -0.3419
H495       H    1.3738689749   -0.0096240864    0.5793398503         -0.3289
H496       H    1.3995974155   -0.0311980069    0.5862922258          0.6568
H497       H    1.3741732450   -0.0414969213    0.5655985868          0.6447
H498       H    1.4132433042    0.0018896606    0.5546834133         -0.3263
H499       H    1.4154011334   -0.0301085576    0.5425127736          0.6476
C500       C    1.1281169748   -0.0053372226    0.4898653139          0.6554
N501       N    1.0996726010   -0.0000000000    0.5000000000         -0.3382
N502       N    1.1124724127    0.0062484885    0.5161520873         -0.3301
N503       N    1.1384105098    0.0099667371    0.5169346628         -0.3273
H504       H    1.1291462964    0.0030867580    0.4702726265         -0.3429
H505       H    1.1293480457   -0.0264172323    0.4865951164          0.6393
H506       H    1.1563531100    0.0243005645    0.5068931243         -0.3192
C415       C    0.0000000000   -0.4003273990    0.0000000000           -0.34
C416       C   -0.0181765152   -0.3871251739   -0.0147595079         -0.3393
C417       C   -0.0197808586   -0.3605119226   -0.0144453781         -0.3382
C418       C   -0.0045133724   -0.3440662072   -0.0007182313         -0.3378
C419       C    0.0134560590   -0.3572388587    0.0132422447         -0.3389
C420       C    0.0156377699   -0.3837906332    0.0134816393           -0.34
C421       C   -0.0107521372   -0.3127503951    0.0002605951         -0.3339
H422       H   -0.0349063612   -0.3511523735   -0.0257124917          -0.337
C423       C   -0.0376433759   -0.4018031227   -0.0324416841         -0.3399
H424       H    0.0305869880   -0.3923168947    0.0257477510         -0.3405
H425       H    0.0265861955   -0.3461298581    0.0255279326         -0.3383
C426       C    0.0089182004   -0.2886991733    0.0047422891         -0.3411
C427       C   -0.0007074286   -0.2647492055   -0.0131107689          0.6536
N428       N   -0.0276283988   -0.2729994017   -0.0188280944         -0.3362
N429       N   -0.0254381239   -0.3017050810   -0.0222202968         -0.3395
C430       C    0.0072860218   -0.2332005032   -0.0116425647          0.6506
H431       H   -0.0438834232   -0.3087912054   -0.0240070062         -0.3313
H432       H   -0.0390462491   -0.2705876290   -0.0028163456         -0.3213
H433       H    0.0288186365   -0.2941443558   -0.0003286083           0.646
H434       H    0.0092691221   -0.2696466602   -0.0312790994          0.6381
H435       H    0.0085402047   -0.2830790604    0.0252423348          -0.329
H436       H   -0.0243741276   -0.3111524304    0.0165296883         -0.3177
O437       O   -0.0046082802   -0.2105529543    0.0036667580         -0.3344
C438       C    0.0037909196   -0.1904515229   -0.0359111570          0.6386
C439       C    0.0042535516   -0.2206418461   -0.0389347785          0.6365
C440       C   -0.0060935495   -0.1551542387    0.0007168785         -0.3351
H441       H   -0.0141457000   -0.2269022806   -0.0476263996          0.6406
H442       H    0.0196587784   -0.1813718608   -0.0467282688          0.6245
H443       H   -0.0145807817   -0.1829211037   -0.0435627212          0.6435
H444       H    0.0199199953   -0.2267433139   -0.0519095029          0.6211
H445       H    0.0264458709   -0.1839769655   -0.0014201558          0.6472
C446       C    0.0058271662   -0.1843015128   -0.0066368316          0.6545
H447       H    0.0280226576   -0.2327778393   -0.0069429432          0.6429
C448       C   -0.0550386543   -0.3861936907   -0.0513447990         -0.3419
H449       H   -0.0687491382   -0.3738689749   -0.0407552560         -0.3289
H450       H   -0.0664264088   -0.3995974155   -0.0633024176          0.6568
H451       H   -0.0433375514   -0.3741732450   -0.0643974045          0.6447
H452       H   -0.0508156663   -0.4132433042   -0.0202882864         -0.3263
H453       H   -0.0267912749   -0.4154011334   -0.0446776090          0.6476
C454       C    0.0114258538   -0.1281169748   -0.0008047801          0.6554
N455       N   -0.0000000000   -0.0996726010    0.0000000000         -0.3382
N456       N   -0.0173008362   -0.1124724127   -0.0007839630         -0.3301
N457       N   -0.0195143056   -0.1384105098    0.0023044590         -0.3273
H458       H    0.0259682696   -0.1291462964    0.0147950594         -0.3429
H459       H    0.0229070086   -0.1293480457   -0.0187837702          0.6393
H460       H   -0.0160941635   -0.1563531100    0.0194681920         -0.3192
C369       C    0.0000000000    0.0996726010   -0.0000000000           -0.34
C370       C    0.0018173141    0.1128748261    0.0233436533         -0.3393
C371       C    0.0031500033    0.1394880774    0.0242905084         -0.3382
C372       C    0.0025876854    0.1559337928    0.0037669976         -0.3378
C373       C    0.0003336691    0.1427611413   -0.0188762082         -0.3389
C374       C   -0.0009953387    0.1162093668   -0.0206228937           -0.34
C375       C    0.0075940959    0.1872496049    0.0076161718         -0.3379
H376       H    0.0053981387    0.1488476265    0.0430168151          -0.337
C377       C    0.0024042789    0.0981968773    0.0496357337         -0.3399
H378       H   -0.0023977584    0.1076831053   -0.0399094133         -0.3405
H379       H    0.0001982711    0.1538701419   -0.0368573171         -0.3383
C380       C   -0.0027037834    0.2113008267   -0.0097320686         -0.3411
C381       C   -0.0090185152    0.2352507945    0.0095424891          0.6536
N382       N    0.0053771092    0.2270005983    0.0329986705         -0.3362
N383       N    0.0014091779    0.1982949190    0.0337469103         -0.3395
C384       C   -0.0134592272    0.2667994968    0.0027358049          0.6506
H385       H    0.0128173063    0.1912087946    0.0483508825         -0.3313
H386       H    0.0248497877    0.2294123710    0.0302494532         -0.3213
H387       H   -0.0200860730    0.2058556442   -0.0206681268           0.646
H388       H   -0.0290621410    0.2303533398    0.0148219650          0.6381
H389       H    0.0124197444    0.2169209396   -0.0235766943          -0.329
H390       H    0.0287713813    0.1888475696    0.0062877905         -0.3177
O391       O    0.0058323089    0.2894470457    0.0008158018         -0.3344
C392       C   -0.0286476135    0.3095484771    0.0219840058          0.6386
C393       C   -0.0311584585    0.2793581539    0.0237309955          0.6365
C394       C    0.0047164778    0.3448457613    0.0039242957         -0.3351
H395       H   -0.0247883282    0.2730977194    0.0430570964          0.6406
H396       H   -0.0474187988    0.3186281392    0.0179291995          0.6245
H397       H   -0.0215423828    0.3170788963    0.0405738292          0.6435
H398       H   -0.0513552652    0.2732566861    0.0213082014          0.6211
H399       H   -0.0192433215    0.3160230345   -0.0181960300          0.6472
C400       C   -0.0088251733    0.3156984872    0.0003460000          0.6545
H401       H   -0.0243334774    0.2672221607   -0.0155356260          0.6429
C402       C    0.0006792945    0.1138063093    0.0752667284         -0.3419
H403       H    0.0177996690    0.1261310251    0.0779140980         -0.3289
H404       H   -0.0001474510    0.1004025845    0.0917586079          0.6568
H405       H   -0.0168429897    0.1258267550    0.0757725726          0.6447
H406       H    0.0202878369    0.0867566958    0.0508158457         -0.3263
H407       H   -0.0139411652    0.0845988666    0.0501946717          0.6476
C408       C   -0.0084526462    0.3718830252   -0.0077298499          0.6554
N409       N    0.0000000000    0.4003273990    0.0000000000         -0.3382
N410       N    0.0113469433    0.3875275873    0.0130835932         -0.3301
N411       N    0.0151105983    0.3615894902    0.0125613881         -0.3273
H412       H   -0.0071578346    0.3708537036   -0.0290174122         -0.3429
H413       H   -0.0293952371    0.3706519543   -0.0036716621          0.6393
H414       H    0.0251993578    0.3436468900   -0.0017392424         -0.3192
C323       C   -0.4003273990   -0.0000000000    0.0000000000           -0.34
C324       C   -0.3871251739    0.0233880183   -0.0011087728         -0.3393
C325       C   -0.3605119226    0.0244937179    0.0000953964         -0.3382
C326       C   -0.3440662072    0.0040603637    0.0020975780         -0.3378
C327       C   -0.3572388587   -0.0186871523    0.0026856854         -0.3389
C328       C   -0.3837906332   -0.0205859761    0.0015849400           -0.34
C329       C   -0.3127503951    0.0085039744    0.0065847387         -0.3339
H330       H   -0.3511523735    0.0433541945   -0.0000099512          -0.337
C331       C   -0.4018031227    0.0495479609   -0.0038060727         -0.3399
H332       H   -0.3923168947   -0.0398967952    0.0025992788         -0.3405
H333       H   -0.3461298581   -0.0365447082    0.0047943127         -0.3383
C334       C   -0.2886991733   -0.0099933262   -0.0014686849         -0.3411
C335       C   -0.2647492055    0.0083429853   -0.0101384078          0.6536
N336       N   -0.2729994017    0.0334116741    0.0012188492         -0.3362
N337       N   -0.3017050810    0.0336591090   -0.0028114259         -0.3395
C338       C   -0.2332005032    0.0010355297   -0.0136953680          0.6506
H339       H   -0.3087912054    0.0495720685    0.0066858958         -0.3313
H340       H   -0.2705876290    0.0331129561    0.0208823731         -0.3213
H341       H   -0.2941443558   -0.0230122384   -0.0173510425           0.646
H342       H   -0.2696466602    0.0110809790   -0.0306840446          0.6381
H343       H   -0.2830790604   -0.0218433052    0.0152637015          -0.329
H344       H   -0.3111524304    0.0098276280    0.0277623201         -0.3177
O345       O   -0.2105529543    0.0015369535    0.0056849920         -0.3344
C346       C   -0.1904515229    0.0182387884   -0.0311661494          0.6386
C347       C   -0.2206418461    0.0196589297   -0.0338753031          0.6365
C348       C   -0.1551542387    0.0044819793    0.0041901219         -0.3351
H349       H   -0.2269022806    0.0396286944   -0.0299656695          0.6406
H350       H   -0.1813718608    0.0118741305   -0.0492849237          0.6245
H351       H   -0.1829211037    0.0375697229   -0.0264353133          0.6435
H352       H   -0.2267433139    0.0147357047   -0.0536121415          0.6211
H353       H   -0.1839769655   -0.0204543251   -0.0168232433          0.6472
C354       C   -0.1843015128   -0.0007575566   -0.0087994038          0.6545
H355       H   -0.2327778393   -0.0184496476   -0.0222055016          0.6429
C356       C   -0.3861936907    0.0747635881   -0.0087148002         -0.3419
H357       H   -0.3738689749    0.0795258797    0.0079416210         -0.3289
H358       H   -0.3995974155    0.0910235282   -0.0115922892          0.6568
H359       H   -0.3741732450    0.0730797477   -0.0261633245          0.6447
H360       H   -0.4132433042    0.0529496547    0.0137905972         -0.3263
H361       H   -0.4154011334    0.0480635989   -0.0200935716          0.6476
C362       C   -0.1281169748   -0.0087238604   -0.0074224030          0.6554
N363       N   -0.0996726010   -0.0000000000    0.0000000000         -0.3382
N364       N   -0.1124724127    0.0143968232    0.0096262669         -0.3301
N365       N   -0.1384105098    0.0143481761    0.0134256656         -0.3273
H366       H   -0.1291462964   -0.0296836398   -0.0034822892         -0.3429
H367       H   -0.1293480457   -0.0073097530   -0.0287076397          0.6393
H368       H   -0.1563531100    0.0014177157    0.0252194901         -0.3192
C277       C    0.0996726010   -0.0000000000    0.0000000000           -0.34
C278       C    0.1128748261    0.0220235784   -0.0079492624         -0.3393
C279       C    0.1394880774    0.0234349405   -0.0071242460         -0.3382
C280       C    0.1559337928    0.0044980987    0.0008083903         -0.3378
C281       C    0.1427611413   -0.0170667776    0.0080714108         -0.3389
C282       C    0.1162093668   -0.0192056031    0.0075788689           -0.34
C283       C    0.1872496049    0.0100663665    0.0037874307         -0.3339
H284       H    0.1488476265    0.0414274725   -0.0127808765          -0.337
C285       C    0.0981968773    0.0462281287   -0.0182331220         -0.3399
H286       H    0.1076831053   -0.0373607217    0.0142368181         -0.3405
H287       H    0.1538701419   -0.0335107621    0.0153469854         -0.3383
C288       C    0.2113008267   -0.0099825325    0.0015403406         -0.3411
C289       C    0.2352507945    0.0049861825   -0.0121462216          0.6536
N290       N    0.2270005983    0.0322881220   -0.0086777147         -0.3362
N291       N    0.1982949190    0.0313373307   -0.0126020411         -0.3395
C292       C    0.2667994968   -0.0030448301   -0.0133927008          0.6506
H293       H    0.1912087946    0.0493419120   -0.0082138238         -0.3313
H294       H    0.2294123710    0.0377951802    0.0102012607         -0.3213
H295       H    0.2058556442   -0.0271024033   -0.0098021187           0.646
H296       H    0.2303533398    0.0015503054   -0.0325867341          0.6381
H297       H    0.2169209396   -0.0163776224    0.0210210383          -0.329
H298       H    0.1888475696    0.0175698195    0.0236353577         -0.3177
O299       O    0.2894470457    0.0031434495    0.0049799684         -0.3344
C300       C    0.3095484771    0.0082484762   -0.0351560082          0.6386
C301       C    0.2793581539    0.0088075324   -0.0381632946          0.6365
C302       C    0.3448457613    0.0055174315    0.0026838797         -0.3351
H303       H    0.2730977194    0.0290428704   -0.0403098802          0.6406
H304       H    0.3186281392   -0.0031712231   -0.0505958696          0.6245
H305       H    0.3170788963    0.0281152429   -0.0363296434          0.6435
H306       H    0.2732566861   -0.0017113484   -0.0555740407          0.6211
H307       H    0.3160230345   -0.0245025141   -0.0100512553          0.6472
C308       C    0.3156984872   -0.0033160872   -0.0081857782          0.6545
H309       H    0.2672221607   -0.0241723084   -0.0157852243          0.6429
C310       C    0.1138063093    0.0688788196   -0.0303521014         -0.3419
H311       H    0.1261310251    0.0783364727   -0.0158376745         -0.3289
H312       H    0.1004025845    0.0835695878   -0.0378917915          0.6568
H313       H    0.1258267550    0.0621296757   -0.0465303391          0.6447
H314       H    0.0867566958    0.0546625392   -0.0024193612         -0.3263
H315       H    0.0845988666    0.0400116288   -0.0333606162          0.6476
C316       C    0.3718830252   -0.0105232561   -0.0045231502          0.6554
N317       N    0.4003273990   -0.0000000000    0.0000000000         -0.3382
N318       N    0.3875275873    0.0165937067    0.0049580673         -0.3301
N319       N    0.3615894902    0.0176664528    0.0086032028         -0.3273
H320       H    0.3708537036   -0.0293922836    0.0054165003         -0.3429
H321       H    0.3706519543   -0.0154421464   -0.0252804505          0.6393
H322       H    0.3436468900    0.0087840150    0.0236827717         -0.3192
C231       C    0.0000000000    0.0000000000   -0.0996726010           -0.34
C232       C    0.0201864095    0.0118632899   -0.1128748261         -0.3393
C233       C    0.0217254068    0.0113118530   -0.1394880774         -0.3382
C234       C    0.0045700472    0.0000324764   -0.1559337928         -0.3378
C235       C   -0.0152916632   -0.0110719287   -0.1427611413         -0.3389
C236       C   -0.0174845870   -0.0109810592   -0.1162093668           -0.34
C237       C    0.0105911432   -0.0018719110   -0.1872496049         -0.3339
H238       H    0.0383710554    0.0201803961   -0.1488476265          -0.337
C239       C    0.0420873333    0.0264223957   -0.0981968773         -0.3399
H240       H   -0.0341059336   -0.0208637438   -0.1076831053         -0.3405
H241       H   -0.0301174856   -0.0212470750   -0.1538701419         -0.3383
C242       C   -0.0095290999   -0.0033496059   -0.2113008267         -0.3411
C243       C    0.0026677926    0.0128559557   -0.2352507945          0.6536
N244       N    0.0301419974    0.0144667049   -0.2270005983         -0.3362
N245       N    0.0284858356    0.0181492949   -0.1982949190         -0.3395
C246       C   -0.0054554849    0.0126044877   -0.2667994968          0.6506
H247       H    0.0469903146    0.0171464722   -0.1912087946         -0.3313
H248       H    0.0390265123   -0.0030777757   -0.2294123710         -0.3213
H249       H   -0.0284426573    0.0046515630   -0.2058556442           0.646
H250       H   -0.0044679813    0.0323161853   -0.2303533398          0.6381
H251       H   -0.0122331581   -0.0236740450   -0.2169209396          -0.329
H252       H    0.0216161791   -0.0200017372   -0.1888475696         -0.3177
O253       O    0.0040055399   -0.0043170603   -0.2894470457         -0.3344
C254       C    0.0016435617    0.0360732723   -0.3095484771          0.6386
C255       C    0.0016401241    0.0391320798   -0.2793581539          0.6365
C256       C    0.0059168540   -0.0016236067   -0.3448457613         -0.3351
H257       H    0.0211357446    0.0449628187   -0.2730977194          0.6406
H258       H   -0.0124204190    0.0491500953   -0.3186281392          0.6245
H259       H    0.0209557954    0.0408798791   -0.3170788963          0.6435
H260       H   -0.0119007918    0.0543118207   -0.2732566861          0.6211
H261       H   -0.0259329065    0.0053745038   -0.3160230345          0.6472
C262       C   -0.0047646992    0.0074364669   -0.3156984872          0.6545
H263       H   -0.0266626588    0.0110714238   -0.2672221607          0.6429
C264       C    0.0621234604    0.0424996179   -0.1138063093         -0.3419
H265       H    0.0740886847    0.0299716813   -0.1261310251         -0.3289
H266       H    0.0751773951    0.0526120055   -0.1004025845          0.6568
H267       H    0.0525146330    0.0571610216   -0.1258267550          0.6447
H268       H    0.0532856753    0.0124291314   -0.0867566958         -0.3263
H269       H    0.0331952727    0.0401489107   -0.0845988666          0.6476
C270       C   -0.0111755225    0.0025110763   -0.3718830252          0.6554
N271       N    0.0000000000    0.0000000000   -0.4003273990         -0.3382
N272       N    0.0172224407   -0.0018223798   -0.3875275873         -0.3301
N273       N    0.0189471420   -0.0052081149   -0.3615894902         -0.3273
H274       H   -0.0278951861   -0.0107286253   -0.3708537036         -0.3429
H275       H   -0.0198272730    0.0220100047   -0.3706519543          0.6393
H276       H    0.0129888924   -0.0216638240   -0.3436468900         -0.3192
C185       C   -0.0000000000    0.0000000000    0.0996726010           -0.34
C186       C   -0.0215681485   -0.0091128344    0.1128748261         -0.3393
C187       C   -0.0220444828   -0.0106767080    0.1394880774         -0.3382
C188       C   -0.0027542287   -0.0036470003    0.1559337928         -0.3378
C189       C    0.0180112582    0.0056583698    0.1427611413         -0.3389
C190       C    0.0192474631    0.0074719214    0.1162093668           -0.34
C191       C   -0.0048208101   -0.0096143723    0.1872496049         -0.3339
H192       H   -0.0390963290   -0.0187366842    0.1488476265          -0.337
C193       C   -0.0463225657   -0.0179918460    0.0981968773         -0.3399
H194       H    0.0370984117    0.0149069905    0.1076831053         -0.3405
H195       H    0.0350249671    0.0114783628    0.1538701419         -0.3383
C196       C    0.0083758426    0.0056452516    0.2113008267         -0.3411
C197       C   -0.0119064677    0.0055343241    0.2352507945          0.6536
N198       N   -0.0295999482   -0.0155456947    0.2270005983         -0.3362
N199       N   -0.0315656839   -0.0120186245    0.1982949190         -0.3395
C200       C   -0.0068553834    0.0119012245    0.2667994968          0.6506
H201       H   -0.0418077448   -0.0274627686    0.1912087946         -0.3313
H202       H   -0.0208284055   -0.0331469288    0.2294123710         -0.3213
H203       H    0.0132475841    0.0255953767    0.2058556442           0.646
H204       H   -0.0232588914    0.0228762466    0.2303533398          0.6381
H205       H    0.0262956604   -0.0043184267    0.2169209396          -0.329
H206       H    0.0031425112   -0.0292823038    0.1888475696         -0.3177
O207       O    0.0010722442   -0.0057906522    0.2894470457         -0.3344
C208       C   -0.0299214681    0.0202160337    0.3095484771          0.6386
C209       C   -0.0323733892    0.0220448032    0.2793581539          0.6365
C210       C   -0.0022296127   -0.0057161252    0.3448457613         -0.3351
H211       H   -0.0486894556    0.0098849218    0.2730977194          0.6406
H212       H   -0.0320167891    0.0393055199    0.3186281392          0.6245
H213       H   -0.0453064332    0.0075919026    0.3170788963          0.6435
H214       H   -0.0364680603    0.0419700285    0.2732566861          0.6211
H215       H    0.0111693521    0.0240134651    0.3160230345          0.6472
C216       C   -0.0031216399    0.0082618862    0.3156984872          0.6545
H217       H    0.0070345532    0.0279998011    0.2672221607          0.6429
C218       C   -0.0711816894   -0.0244685295    0.1138063093         -0.3419
H219       H   -0.0682738294   -0.0415465897    0.1261310251         -0.3289
H220       H   -0.0870872884   -0.0289044645    0.1004025845          0.6568
H221       H   -0.0772078496   -0.0080073110    0.1258267550          0.6447
H222       H   -0.0417813203   -0.0353294180    0.0867566958         -0.3263
H223       H   -0.0520265848   -0.0026637633    0.0845988666          0.6476
C224       C    0.0046568864    0.0104647607    0.3718830252          0.6554
N225       N    0.0000000000    0.0000000000    0.4003273990         -0.3382
N226       N   -0.0088192227   -0.0149048598    0.3875275873         -0.3301
N227       N   -0.0071325591   -0.0183097038    0.3615894902         -0.3273
H228       H    0.0252597434    0.0159746728    0.3708537036         -0.3429
H229       H   -0.0058215939    0.0290459999    0.3706519543          0.6393
H230       H    0.0096261628   -0.0233531494    0.3436468900         -0.3192
loop_
_geom_bond_atom_site_label_1
_geom_bond_atom_site_label_2
_geom_bond_distance
_geom_bond_site_symmetry_2
_ccdc_geom_bond_type
Zn1          O5 1.942       .   S
Zn1          O6 1.922       .   S
Zn1         O10 1.922       .   S
Zn1         O17 1.922       .   S
Zn2          O5 1.942       .   S
Zn2          O7 1.922       .   S
Zn2          O9 1.922       .   S
Zn2         O13 1.922       .   S
Zn3          O5 1.942       .   S
Zn3          O8 1.922       .   S
Zn3         O11 1.922       .   S
Zn3         O14 1.922       .   S
Zn4          O5 1.942       .   S
Zn4         O12 1.922       .   S
Zn4         O15 1.922       .   S
Zn4         O16 1.922       .   S
O6          C18 1.304       .   A
O7          C19 1.304       .   A
O8          C20 1.304       .   A
O9          C18 1.304       .   A
O10         C20 1.304       .   A
O11         C19 1.304       .   A
O12         C21 1.304       .   A
O13         C22 1.304       .   A
O14         C21 1.304       .   A
O15         C22 1.304       .   A
O16         C23 1.304       .   A
O17         C23 1.304       .   A
C18        C185 1.540       .   S
C19        C277 1.540       .   S
C20        N455 1.540       .   S
C21        C231 1.540       .   S
C22        C369 1.540       .   S
C23        N363 1.540       .   S
Zn24        O28 1.942       .   S
Zn24        O29 1.922       .   S
Zn24        O33 1.922       .   S
Zn24        O40 1.922       .   S
Zn25        O28 1.942       .   S
Zn25        O30 1.922       .   S
Zn25        O32 1.922       .   S
Zn25        O36 1.922       .   S
Zn26        O28 1.942       .   S
Zn26        O31 1.922       .   S
Zn26        O34 1.922       .   S
Zn26        O37 1.922       .   S
Zn27        O28 1.942       .   S
Zn27        O35 1.922       .   S
Zn27        O38 1.922       .   S
Zn27        O39 1.922       .   S
O29         C41 1.304       .   A
O30         C42 1.304       .   A
O31         C43 1.304       .   A
O32         C41 1.304       .   A
O33         C43 1.304       .   A
O34         C42 1.304       .   A
O35         C44 1.304       .   A
O36         C45 1.304       .   A
O37         C44 1.304       .   A
O38         C45 1.304       .   A
O39         C46 1.304       .   A
O40         C46 1.304       .   A
C41        N225 1.540   1_655   S
C42        N501 1.540       .   S
C43        C553 1.540       .   S
C44        N271 1.540   1_656   S
C45        C599 1.540       .   S
C46        N547 1.540       .   S
Zn47        O51 1.942       .   S
Zn47        O52 1.922       .   S
Zn47        O56 1.922       .   S
Zn47        O63 1.922       .   S
Zn48        O51 1.942       .   S
Zn48        O53 1.922       .   S
Zn48        O55 1.922       .   S
Zn48        O59 1.922       .   S
Zn49        O51 1.942       .   S
Zn49        O54 1.922       .   S
Zn49        O57 1.922       .   S
Zn49        O60 1.922       .   S
Zn50        O51 1.942       .   S
Zn50        O58 1.922       .   S
Zn50        O61 1.922       .   S
Zn50        O62 1.922       .   S
O52         C64 1.304       .   A
O53         C65 1.304       .   A
O54         C66 1.304       .   A
O55         C64 1.304       .   A
O56         C66 1.304       .   A
O57         C65 1.304       .   A
O58         C67 1.304       .   A
O59         C68 1.304       .   A
O60         C67 1.304       .   A
O61         C68 1.304       .   A
O62         C69 1.304       .   A
O63         C69 1.304       .   A
C64        N409 1.540   1_655   S
C65        C645 1.540       .   S
C66        N777 1.540       .   S
C67        C415 1.540   1_665   S
C68        N823 1.540       .   S
C69        C691 1.540       .   S
Zn70        O74 1.942       .   S
Zn70        O75 1.922       .   S
Zn70        O79 1.922       .   S
Zn70        O86 1.922       .   S
Zn71        O74 1.942       .   S
Zn71        O76 1.922       .   S
Zn71        O78 1.922       .   S
Zn71        O82 1.922       .   S
Zn72        O74 1.942       .   S
Zn72        O77 1.922       .   S
Zn72        O80 1.922       .   S
Zn72        O83 1.922       .   S
Zn73        O74 1.942       .   S
Zn73        O81 1.922       .   S
Zn73        O84 1.922       .   S
Zn73        O85 1.922       .   S
O75         C87 1.304       .   A
O76         C88 1.304       .   A
O77         C89 1.304       .   A
O78         C87 1.304       .   A
O79         C89 1.304       .   A
O80         C88 1.304       .   A
O81         C90 1.304       .   A
O82         C91 1.304       .   A
O83         C90 1.304       .   A
O84         C91 1.304       .   A
O85         C92 1.304       .   A
O86         C92 1.304       .   A
C87        N593 1.540       .   S
C88        N685 1.540       .   S
C89        C875 1.540       .   S
C90        N639 1.540   1_565   S
C91        C829 1.540       .   S
C92        N731 1.540   1_556   S
Zn93        O97 1.942       .   S
Zn93        O98 1.922       .   S
Zn93       O102 1.922       .   S
Zn93       O109 1.922       .   S
Zn94        O97 1.942       .   S
Zn94        O99 1.922       .   S
Zn94       O101 1.922       .   S
Zn94       O105 1.922       .   S
Zn95        O97 1.942       .   S
Zn95       O100 1.922       .   S
Zn95       O103 1.922       .   S
Zn95       O106 1.922       .   S
Zn96        O97 1.942       .   S
Zn96       O104 1.922       .   S
Zn96       O107 1.922       .   S
Zn96       O108 1.922       .   S
O98        C110 1.304       .   A
O99        C111 1.304       .   A
O100       C112 1.304       .   A
O101       C110 1.304       .   A
O102       C112 1.304       .   A
O103       C111 1.304       .   A
O104       C113 1.304       .   A
O105       C114 1.304       .   A
O106       C113 1.304       .   A
O107       C114 1.304       .   A
O108       C115 1.304       .   A
O109       C115 1.304       .   A
C110       N317 1.540   1_565   S
C111       C921 1.540       .   S
C112      C1059 1.540       .   S
C113       C323 1.540   1_665   S
C114      N1053 1.540       .   S
C115       C967 1.540       .   S
Zn116      O120 1.942       .   S
Zn116      O121 1.922       .   S
Zn116      O125 1.922       .   S
Zn116      O132 1.922       .   S
Zn117      O120 1.942       .   S
Zn117      O122 1.922       .   S
Zn117      O124 1.922       .   S
Zn117      O128 1.922       .   S
Zn118      O120 1.942       .   S
Zn118      O123 1.922       .   S
Zn118      O126 1.922       .   S
Zn118      O129 1.922       .   S
Zn119      O120 1.942       .   S
Zn119      O127 1.922       .   S
Zn119      O130 1.922       .   S
Zn119      O131 1.922       .   S
O121       C133 1.304       .   A
O122       C134 1.304       .   A
O123       C135 1.304       .   A
O124       C133 1.304       .   A
O125       C135 1.304       .   A
O126       C134 1.304       .   A
O127       C136 1.304       .   A
O128       C137 1.304       .   A
O129       C136 1.304       .   A
O130       C137 1.304       .   A
O131       C138 1.304       .   A
O132       C138 1.304       .   A
C133      N1191 1.540       .   S
C134       C461 1.540   1_465   S
C135      N1007 1.540   1_556   S
C136      C1105 1.540       .   S
C137       N961 1.540       .   S
C138       C507 1.540   1_565   S
Zn139      O143 1.942       .   S
Zn139      O144 1.922       .   S
Zn139      O148 1.922       .   S
Zn139      O155 1.922       .   S
Zn140      O143 1.942       .   S
Zn140      O145 1.922       .   S
Zn140      O147 1.922       .   S
Zn140      O151 1.922       .   S
Zn141      O143 1.942       .   S
Zn141      O146 1.922       .   S
Zn141      O149 1.922       .   S
Zn141      O152 1.922       .   S
Zn142      O143 1.942       .   S
Zn142      O150 1.922       .   S
Zn142      O153 1.922       .   S
Zn142      O154 1.922       .   S
O144       C156 1.304       .   A
O145       C157 1.304       .   A
O146       C158 1.304       .   A
O147       C156 1.304       .   A
O148       C158 1.304       .   A
O149       C157 1.304       .   A
O150       C159 1.304       .   A
O151       C160 1.304       .   A
O152       C159 1.304       .   A
O153       C160 1.304       .   A
O154       C161 1.304       .   A
O155       C161 1.304       .   A
C156      C1197 1.540       .   S
C157      C1013 1.540   1_545   S
C158       C737 1.540   1_455   S
C159      N1283 1.540       .   S
C160       C783 1.540       .   S
C161      N1099 1.540       .   S
Zn162      O166 1.942       .   S
Zn162      O167 1.922       .   S
Zn162      O171 1.922       .   S
Zn162      O178 1.922       .   S
Zn163      O166 1.942       .   S
Zn163      O168 1.922       .   S
Zn163      O170 1.922       .   S
Zn163      O174 1.922       .   S
Zn164      O166 1.942       .   S
Zn164      O169 1.922       .   S
Zn164      O172 1.922       .   S
Zn164      O175 1.922       .   S
Zn165      O166 1.942       .   S
Zn165      O173 1.922       .   S
Zn165      O176 1.922       .   S
Zn165      O177 1.922       .   S
O167       C179 1.304       .   A
O168       C180 1.304       .   A
O169       C181 1.304       .   A
O170       C179 1.304       .   A
O171       C181 1.304       .   A
O172       C180 1.304       .   A
O173       C182 1.304       .   A
O174       C183 1.304       .   A
O175       C182 1.304       .   A
O176       C183 1.304       .   A
O177       C184 1.304       .   A
O178       C184 1.304       .   A
C179       N869 1.540   1_455   S
C180      C1151 1.540       .   S
C181      C1243 1.540   1_556   S
C182       N915 1.540       .   S
C183      N1237 1.540       .   S
C184      N1145 1.540   1_545   S
C1243     C1244 0.021       .   A
C1243     C1248 0.020       .   A
C1244     C1245 0.020       .   A
C1244     C1251 0.023       .   A
C1245     C1246 0.020       .   A
C1245     H1250 0.016       .   A
C1246     C1247 0.020       .   A
C1246     C1249 0.024       .   A
C1247     C1248 0.020       .   A
C1247     H1253 0.016       .   A
C1248     H1252 0.016       .   A
C1249     C1254 0.024       .   A
C1249     N1257 0.022       .   A
C1249     H1264 0.016       .   A
C1251     C1276 0.023       .   A
C1251     H1280 0.016       .   A
C1251     H1281 0.016       .   A
C1254     C1255 0.024       .   A
C1254     H1261 0.016       .   A
C1254     H1263 0.016       .   A
C1255     N1256 0.022       .   A
C1255     C1258 0.025       .   A
C1255     H1262 0.016       .   A
N1256     N1257 0.022       .   A
N1256     H1260 0.015       .   A
N1257     H1259 0.015       .   A
C1258     O1265 0.023       .   A
C1258     C1267 0.023       .   A
C1258     H1275 0.016       .   A
O1265     C1274 0.023       .   A
C1266     C1267 0.023       .   A
C1266     H1270 0.016       .   A
C1266     H1271 0.016       .   A
C1266     C1274 0.023       .   A
C1267     H1269 0.016       .   A
C1267     H1272 0.016       .   A
C1268     C1274 0.025       .   A
C1268     C1282 0.025       .   A
C1268     N1285 0.016       .   A
C1268     H1288 0.016       .   A
H1273     C1274 0.016       .   A
C1276     H1277 0.016       .   A
C1276     H1278 0.016       .   A
C1276     H1279 0.016       .   A
C1282     N1283 0.023       .   A
C1282     H1286 0.016       .   A
C1282     H1287 0.016       .   A
N1283     N1284 0.016       .   A
N1284     N1285 0.020       .   A
C1197     C1198 0.021       .   A
C1197     C1202 0.020       .   A
C1198     C1199 0.020       .   A
C1198     C1205 0.023       .   A
C1199     C1200 0.020       .   A
C1199     H1204 0.016       .   A
C1200     C1201 0.020       .   A
C1200     C1203 0.024       .   A
C1201     C1202 0.020       .   A
C1201     H1207 0.016       .   A
C1202     H1206 0.016       .   A
C1203     C1208 0.024       .   A
C1203     N1211 0.022       .   A
C1203     H1218 0.016       .   A
C1205     C1230 0.023       .   A
C1205     H1234 0.016       .   A
C1205     H1235 0.016       .   A
C1208     C1209 0.024       .   A
C1208     H1215 0.016       .   A
C1208     H1217 0.016       .   A
C1209     N1210 0.022       .   A
C1209     C1212 0.025       .   A
C1209     H1216 0.016       .   A
N1210     N1211 0.022       .   A
N1210     H1214 0.015       .   A
N1211     H1213 0.015       .   A
C1212     O1219 0.023       .   A
C1212     C1221 0.023       .   A
C1212     H1229 0.016       .   A
O1219     C1228 0.023       .   A
C1220     C1221 0.023       .   A
C1220     H1224 0.016       .   A
C1220     H1225 0.016       .   A
C1220     C1228 0.023       .   A
C1221     H1223 0.016       .   A
C1221     H1226 0.016       .   A
C1222     C1228 0.025       .   A
C1222     C1236 0.025       .   A
C1222     N1239 0.016       .   A
C1222     H1242 0.016       .   A
H1227     C1228 0.016       .   A
C1230     H1231 0.016       .   A
C1230     H1232 0.016       .   A
C1230     H1233 0.016       .   A
C1236     N1237 0.023       .   A
C1236     H1240 0.016       .   A
C1236     H1241 0.016       .   A
N1237     N1238 0.016       .   A
N1238     N1239 0.020       .   A
C1151     C1152 0.021       .   A
C1151     C1156 0.020       .   A
C1152     C1153 0.020       .   A
C1152     C1159 0.023       .   A
C1153     C1154 0.020       .   A
C1153     H1158 0.016       .   A
C1154     C1155 0.020       .   A
C1154     C1157 0.024       .   A
C1155     C1156 0.020       .   A
C1155     H1161 0.016       .   A
C1156     H1160 0.016       .   A
C1157     C1162 0.024       .   A
C1157     N1165 0.022       .   A
C1157     H1172 0.016       .   A
C1159     C1184 0.023       .   A
C1159     H1188 0.016       .   A
C1159     H1189 0.016       .   A
C1162     C1163 0.024       .   A
C1162     H1169 0.016       .   A
C1162     H1171 0.016       .   A
C1163     N1164 0.022       .   A
C1163     C1166 0.025       .   A
C1163     H1170 0.016       .   A
N1164     N1165 0.022       .   A
N1164     H1168 0.015       .   A
N1165     H1167 0.015       .   A
C1166     O1173 0.023       .   A
C1166     C1175 0.023       .   A
C1166     H1183 0.016       .   A
O1173     C1182 0.023       .   A
C1174     C1175 0.023       .   A
C1174     H1178 0.016       .   A
C1174     H1179 0.016       .   A
C1174     C1182 0.023       .   A
C1175     H1177 0.016       .   A
C1175     H1180 0.016       .   A
C1176     C1182 0.025       .   A
C1176     C1190 0.025       .   A
C1176     N1193 0.016       .   A
C1176     H1196 0.016       .   A
H1181     C1182 0.016       .   A
C1184     H1185 0.016       .   A
C1184     H1186 0.016       .   A
C1184     H1187 0.016       .   A
C1190     N1191 0.023       .   A
C1190     H1194 0.016       .   A
C1190     H1195 0.016       .   A
N1191     N1192 0.016       .   A
N1192     N1193 0.020       .   A
C1105     C1106 0.021       .   A
C1105     C1110 0.020       .   A
C1106     C1107 0.020       .   A
C1106     C1113 0.023       .   A
C1107     C1108 0.020       .   A
C1107     H1112 0.016       .   A
C1108     C1109 0.020       .   A
C1108     C1111 0.024       .   A
C1109     C1110 0.020       .   A
C1109     H1115 0.016       .   A
C1110     H1114 0.016       .   A
C1111     C1116 0.024       .   A
C1111     N1119 0.022       .   A
C1111     H1126 0.016       .   A
C1113     C1138 0.023       .   A
C1113     H1142 0.016       .   A
C1113     H1143 0.016       .   A
C1116     C1117 0.024       .   A
C1116     H1123 0.016       .   A
C1116     H1125 0.016       .   A
C1117     N1118 0.022       .   A
C1117     C1120 0.025       .   A
C1117     H1124 0.016       .   A
N1118     N1119 0.022       .   A
N1118     H1122 0.015       .   A
N1119     H1121 0.015       .   A
C1120     O1127 0.023       .   A
C1120     C1129 0.023       .   A
C1120     H1137 0.016       .   A
O1127     C1136 0.023       .   A
C1128     C1129 0.023       .   A
C1128     H1132 0.016       .   A
C1128     H1133 0.016       .   A
C1128     C1136 0.023       .   A
C1129     H1131 0.016       .   A
C1129     H1134 0.016       .   A
C1130     C1136 0.025       .   A
C1130     C1144 0.025       .   A
C1130     N1147 0.016       .   A
C1130     H1150 0.016       .   A
H1135     C1136 0.016       .   A
C1138     H1139 0.016       .   A
C1138     H1140 0.016       .   A
C1138     H1141 0.016       .   A
C1144     N1145 0.023       .   A
C1144     H1148 0.016       .   A
C1144     H1149 0.016       .   A
N1145     N1146 0.016       .   A
N1146     N1147 0.020       .   A
C1059     C1060 0.021       .   A
C1059     C1064 0.020       .   A
C1060     C1061 0.020       .   A
C1060     C1067 0.023       .   A
C1061     C1062 0.020       .   A
C1061     H1066 0.016       .   A
C1062     C1063 0.020       .   A
C1062     C1065 0.024       .   A
C1063     C1064 0.020       .   A
C1063     H1069 0.016       .   A
C1064     H1068 0.016       .   A
C1065     C1070 0.024       .   A
C1065     N1073 0.022       .   A
C1065     H1080 0.016       .   A
C1067     C1092 0.023       .   A
C1067     H1096 0.016       .   A
C1067     H1097 0.016       .   A
C1070     C1071 0.024       .   A
C1070     H1077 0.016       .   A
C1070     H1079 0.016       .   A
C1071     N1072 0.022       .   A
C1071     C1074 0.025       .   A
C1071     H1078 0.016       .   A
N1072     N1073 0.022       .   A
N1072     H1076 0.015       .   A
N1073     H1075 0.015       .   A
C1074     O1081 0.023       .   A
C1074     C1083 0.023       .   A
C1074     H1091 0.016       .   A
O1081     C1090 0.023       .   A
C1082     C1083 0.023       .   A
C1082     H1086 0.016       .   A
C1082     H1087 0.016       .   A
C1082     C1090 0.023       .   A
C1083     H1085 0.016       .   A
C1083     H1088 0.016       .   A
C1084     C1090 0.025       .   A
C1084     C1098 0.025       .   A
C1084     N1101 0.016       .   A
C1084     H1104 0.016       .   A
H1089     C1090 0.016       .   A
C1092     H1093 0.016       .   A
C1092     H1094 0.016       .   A
C1092     H1095 0.016       .   A
C1098     N1099 0.023       .   A
C1098     H1102 0.016       .   A
C1098     H1103 0.016       .   A
N1099     N1100 0.016       .   A
N1100     N1101 0.020       .   A
C1013     C1014 0.021       .   A
C1013     C1018 0.020       .   A
C1014     C1015 0.020       .   A
C1014     C1021 0.023       .   A
C1015     C1016 0.020       .   A
C1015     H1020 0.016       .   A
C1016     C1017 0.020       .   A
C1016     C1019 0.024       .   A
C1017     C1018 0.020       .   A
C1017     H1023 0.016       .   A
C1018     H1022 0.016       .   A
C1019     C1024 0.024       .   A
C1019     N1027 0.022       .   A
C1019     H1034 0.016       .   A
C1021     C1046 0.023       .   A
C1021     H1050 0.016       .   A
C1021     H1051 0.016       .   A
C1024     C1025 0.024       .   A
C1024     H1031 0.016       .   A
C1024     H1033 0.016       .   A
C1025     N1026 0.022       .   A
C1025     C1028 0.025       .   A
C1025     H1032 0.016       .   A
N1026     N1027 0.022       .   A
N1026     H1030 0.015       .   A
N1027     H1029 0.015       .   A
C1028     O1035 0.023       .   A
C1028     C1037 0.023       .   A
C1028     H1045 0.016       .   A
O1035     C1044 0.023       .   A
C1036     C1037 0.023       .   A
C1036     H1040 0.016       .   A
C1036     H1041 0.016       .   A
C1036     C1044 0.023       .   A
C1037     H1039 0.016       .   A
C1037     H1042 0.016       .   A
C1038     C1044 0.025       .   A
C1038     C1052 0.025       .   A
C1038     N1055 0.016       .   A
C1038     H1058 0.016       .   A
H1043     C1044 0.016       .   A
C1046     H1047 0.016       .   A
C1046     H1048 0.016       .   A
C1046     H1049 0.016       .   A
C1052     N1053 0.023       .   A
C1052     H1056 0.016       .   A
C1052     H1057 0.016       .   A
N1053     N1054 0.016       .   A
N1054     N1055 0.020       .   A
C967       C968 0.021       .   A
C967       C972 0.020       .   A
C968       C969 0.020       .   A
C968       C975 0.023       .   A
C969       C970 0.020       .   A
C969       H974 0.016       .   A
C970       C971 0.020       .   A
C970       C973 0.024       .   A
C971       C972 0.020       .   A
C971       H977 0.016       .   A
C972       H976 0.016       .   A
C973       C978 0.024       .   A
C973       N981 0.022       .   A
C973       H988 0.016       .   A
C975      C1000 0.023       .   A
C975      H1004 0.016       .   A
C975      H1005 0.016       .   A
C978       C979 0.024       .   A
C978       H985 0.016       .   A
C978       H987 0.016       .   A
C979       N980 0.022       .   A
C979       C982 0.025       .   A
C979       H986 0.016       .   A
N980       N981 0.022       .   A
N980       H984 0.015       .   A
N981       H983 0.015       .   A
C982       O989 0.023       .   A
C982       C991 0.023       .   A
C982       H999 0.016       .   A
O989       C998 0.023       .   A
C990       C991 0.023       .   A
C990       H994 0.016       .   A
C990       H995 0.016       .   A
C990       C998 0.023       .   A
C991       H993 0.016       .   A
C991       H996 0.016       .   A
C992       C998 0.025       .   A
C992      C1006 0.025       .   A
C992      N1009 0.016       .   A
C992      H1012 0.016       .   A
H997       C998 0.016       .   A
C1000     H1001 0.016       .   A
C1000     H1002 0.016       .   A
C1000     H1003 0.016       .   A
C1006     N1007 0.023       .   A
C1006     H1010 0.016       .   A
C1006     H1011 0.016       .   A
N1007     N1008 0.016       .   A
N1008     N1009 0.020       .   A
C921       C922 0.021       .   A
C921       C926 0.020       .   A
C922       C923 0.020       .   A
C922       C929 0.023       .   A
C923       C924 0.020       .   A
C923       H928 0.016       .   A
C924       C925 0.020       .   A
C924       C927 0.024       .   A
C925       C926 0.020       .   A
C925       H931 0.016       .   A
C926       H930 0.016       .   A
C927       C932 0.024       .   A
C927       N935 0.022       .   A
C927       H942 0.016       .   A
C929       C954 0.023       .   A
C929       H958 0.016       .   A
C929       H959 0.016       .   A
C932       C933 0.024       .   A
C932       H939 0.016       .   A
C932       H941 0.016       .   A
C933       N934 0.022       .   A
C933       C936 0.025       .   A
C933       H940 0.016       .   A
N934       N935 0.022       .   A
N934       H938 0.015       .   A
N935       H937 0.015       .   A
C936       O943 0.023       .   A
C936       C945 0.023       .   A
C936       H953 0.016       .   A
O943       C952 0.023       .   A
C944       C945 0.023       .   A
C944       H948 0.016       .   A
C944       H949 0.016       .   A
C944       C952 0.023       .   A
C945       H947 0.016       .   A
C945       H950 0.016       .   A
C946       C952 0.025       .   A
C946       C960 0.025       .   A
C946       N963 0.016       .   A
C946       H966 0.016       .   A
H951       C952 0.016       .   A
C954       H955 0.016       .   A
C954       H956 0.016       .   A
C954       H957 0.016       .   A
C960       N961 0.023       .   A
C960       H964 0.016       .   A
C960       H965 0.016       .   A
N961       N962 0.016       .   A
N962       N963 0.020       .   A
C875       C876 0.021       .   A
C875       C880 0.020       .   A
C876       C877 0.020       .   A
C876       C883 0.023       .   A
C877       C878 0.020       .   A
C877       H882 0.016       .   A
C878       C879 0.020       .   A
C878       C881 0.024       .   A
C879       C880 0.020       .   A
C879       H885 0.016       .   A
C880       H884 0.016       .   A
C881       C886 0.024       .   A
C881       N889 0.022       .   A
C881       H896 0.016       .   A
C883       C908 0.023       .   A
C883       H912 0.016       .   A
C883       H913 0.016       .   A
C886       C887 0.024       .   A
C886       H893 0.016       .   A
C886       H895 0.016       .   A
C887       N888 0.022       .   A
C887       C890 0.025       .   A
C887       H894 0.016       .   A
N888       N889 0.022       .   A
N888       H892 0.015       .   A
N889       H891 0.015       .   A
C890       O897 0.023       .   A
C890       C899 0.023       .   A
C890       H907 0.016       .   A
O897       C906 0.023       .   A
C898       C899 0.023       .   A
C898       H902 0.016       .   A
C898       H903 0.016       .   A
C898       C906 0.023       .   A
C899       H901 0.016       .   A
C899       H904 0.016       .   A
C900       C906 0.025       .   A
C900       C914 0.025       .   A
C900       N917 0.016       .   A
C900       H920 0.016       .   A
H905       C906 0.016       .   A
C908       H909 0.016       .   A
C908       H910 0.016       .   A
C908       H911 0.016       .   A
C914       N915 0.023       .   A
C914       H918 0.016       .   A
C914       H919 0.016       .   A
N915       N916 0.016       .   A
N916       N917 0.020       .   A
C829       C830 0.021       .   A
C829       C834 0.020       .   A
C830       C831 0.020       .   A
C830       C837 0.023       .   A
C831       C832 0.020       .   A
C831       H836 0.016       .   A
C832       C833 0.020       .   A
C832       C835 0.024       .   A
C833       C834 0.020       .   A
C833       H839 0.016       .   A
C834       H838 0.016       .   A
C835       C840 0.024       .   A
C835       N843 0.022       .   A
C835       H850 0.016       .   A
C837       C862 0.023       .   A
C837       H866 0.016       .   A
C837       H867 0.016       .   A
C840       C841 0.024       .   A
C840       H847 0.016       .   A
C840       H849 0.016       .   A
C841       N842 0.022       .   A
C841       C844 0.025       .   A
C841       H848 0.016       .   A
N842       N843 0.022       .   A
N842       H846 0.015       .   A
N843       H845 0.015       .   A
C844       O851 0.023       .   A
C844       C853 0.023       .   A
C844       H861 0.016       .   A
O851       C860 0.023       .   A
C852       C853 0.023       .   A
C852       H856 0.016       .   A
C852       H857 0.016       .   A
C852       C860 0.023       .   A
C853       H855 0.016       .   A
C853       H858 0.016       .   A
C854       C860 0.025       .   A
C854       C868 0.025       .   A
C854       N871 0.016       .   A
C854       H874 0.016       .   A
H859       C860 0.016       .   A
C862       H863 0.016       .   A
C862       H864 0.016       .   A
C862       H865 0.016       .   A
C868       N869 0.023       .   A
C868       H872 0.016       .   A
C868       H873 0.016       .   A
N869       N870 0.016       .   A
N870       N871 0.020       .   A
C783       C784 0.021       .   A
C783       C788 0.020       .   A
C784       C785 0.020       .   A
C784       C791 0.023       .   A
C785       C786 0.020       .   A
C785       H790 0.016       .   A
C786       C787 0.020       .   A
C786       C789 0.024       .   A
C787       C788 0.020       .   A
C787       H793 0.016       .   A
C788       H792 0.016       .   A
C789       C794 0.024       .   A
C789       N797 0.022       .   A
C789       H804 0.016       .   A
C791       C816 0.023       .   A
C791       H820 0.016       .   A
C791       H821 0.016       .   A
C794       C795 0.024       .   A
C794       H801 0.016       .   A
C794       H803 0.016       .   A
C795       N796 0.022       .   A
C795       C798 0.025       .   A
C795       H802 0.016       .   A
N796       N797 0.022       .   A
N796       H800 0.015       .   A
N797       H799 0.015       .   A
C798       O805 0.023       .   A
C798       C807 0.023       .   A
C798       H815 0.016       .   A
O805       C814 0.023       .   A
C806       C807 0.023       .   A
C806       H810 0.016       .   A
C806       H811 0.016       .   A
C806       C814 0.023       .   A
C807       H809 0.016       .   A
C807       H812 0.016       .   A
C808       C814 0.025       .   A
C808       C822 0.025       .   A
C808       N825 0.016       .   A
C808       H828 0.016       .   A
H813       C814 0.016       .   A
C816       H817 0.016       .   A
C816       H818 0.016       .   A
C816       H819 0.016       .   A
C822       N823 0.023       .   A
C822       H826 0.016       .   A
C822       H827 0.016       .   A
N823       N824 0.016       .   A
N824       N825 0.020       .   A
C737       C738 0.021       .   A
C737       C742 0.020       .   A
C738       C739 0.020       .   A
C738       C745 0.023       .   A
C739       C740 0.020       .   A
C739       H744 0.016       .   A
C740       C741 0.020       .   A
C740       C743 0.024       .   A
C741       C742 0.020       .   A
C741       H747 0.016       .   A
C742       H746 0.016       .   A
C743       C748 0.024       .   A
C743       N751 0.022       .   A
C743       H758 0.016       .   A
C745       C770 0.023       .   A
C745       H774 0.016       .   A
C745       H775 0.016       .   A
C748       C749 0.024       .   A
C748       H755 0.016       .   A
C748       H757 0.016       .   A
C749       N750 0.022       .   A
C749       C752 0.025       .   A
C749       H756 0.016       .   A
N750       N751 0.022       .   A
N750       H754 0.015       .   A
N751       H753 0.015       .   A
C752       O759 0.023       .   A
C752       C761 0.023       .   A
C752       H769 0.016       .   A
O759       C768 0.023       .   A
C760       C761 0.023       .   A
C760       H764 0.016       .   A
C760       H765 0.016       .   A
C760       C768 0.023       .   A
C761       H763 0.016       .   A
C761       H766 0.016       .   A
C762       C768 0.025       .   A
C762       C776 0.025       .   A
C762       N779 0.016       .   A
C762       H782 0.016       .   A
H767       C768 0.016       .   A
C770       H771 0.016       .   A
C770       H772 0.016       .   A
C770       H773 0.016       .   A
C776       N777 0.023       .   A
C776       H780 0.016       .   A
C776       H781 0.016       .   A
N777       N778 0.016       .   A
N778       N779 0.020       .   A
C691       C692 0.021       .   A
C691       C696 0.020       .   A
C692       C693 0.020       .   A
C692       C699 0.023       .   A
C693       C694 0.020       .   A
C693       H698 0.016       .   A
C694       C695 0.020       .   A
C694       C697 0.024       .   A
C695       C696 0.020       .   A
C695       H701 0.016       .   A
C696       H700 0.016       .   A
C697       C702 0.024       .   A
C697       N705 0.022       .   A
C697       H712 0.016       .   A
C699       C724 0.023       .   A
C699       H728 0.016       .   A
C699       H729 0.016       .   A
C702       C703 0.024       .   A
C702       H709 0.016       .   A
C702       H711 0.016       .   A
C703       N704 0.022       .   A
C703       C706 0.025       .   A
C703       H710 0.016       .   A
N704       N705 0.022       .   A
N704       H708 0.015       .   A
N705       H707 0.015       .   A
C706       O713 0.023       .   A
C706       C715 0.023       .   A
C706       H723 0.016       .   A
O713       C722 0.023       .   A
C714       C715 0.023       .   A
C714       H718 0.016       .   A
C714       H719 0.016       .   A
C714       C722 0.023       .   A
C715       H717 0.016       .   A
C715       H720 0.016       .   A
C716       C722 0.025       .   A
C716       C730 0.025       .   A
C716       N733 0.016       .   A
C716       H736 0.016       .   A
H721       C722 0.016       .   A
C724       H725 0.016       .   A
C724       H726 0.016       .   A
C724       H727 0.016       .   A
C730       N731 0.023       .   A
C730       H734 0.016       .   A
C730       H735 0.016       .   A
N731       N732 0.016       .   A
N732       N733 0.020       .   A
C645       C646 0.021       .   A
C645       C650 0.020       .   A
C646       C647 0.020       .   A
C646       C653 0.023       .   A
C647       C648 0.020       .   A
C647       H652 0.016       .   A
C648       C649 0.020       .   A
C648       C651 0.024       .   A
C649       C650 0.020       .   A
C649       H655 0.016       .   A
C650       H654 0.016       .   A
C651       C656 0.024       .   A
C651       N659 0.022       .   A
C651       H666 0.016       .   A
C653       C678 0.023       .   A
C653       H682 0.016       .   A
C653       H683 0.016       .   A
C656       C657 0.024       .   A
C656       H663 0.016       .   A
C656       H665 0.016       .   A
C657       N658 0.022       .   A
C657       C660 0.025       .   A
C657       H664 0.016       .   A
N658       N659 0.022       .   A
N658       H662 0.015       .   A
N659       H661 0.015       .   A
C660       O667 0.023       .   A
C660       C669 0.023       .   A
C660       H677 0.016       .   A
O667       C676 0.023       .   A
C668       C669 0.023       .   A
C668       H672 0.016       .   A
C668       H673 0.016       .   A
C668       C676 0.023       .   A
C669       H671 0.016       .   A
C669       H674 0.016       .   A
C670       C676 0.025       .   A
C670       C684 0.025       .   A
C670       N687 0.016       .   A
C670       H690 0.016       .   A
H675       C676 0.016       .   A
C678       H679 0.016       .   A
C678       H680 0.016       .   A
C678       H681 0.016       .   A
C684       N685 0.023       .   A
C684       H688 0.016       .   A
C684       H689 0.016       .   A
N685       N686 0.016       .   A
N686       N687 0.020       .   A
C599       C600 0.021       .   A
C599       C604 0.020       .   A
C600       C601 0.020       .   A
C600       C607 0.023       .   A
C601       C602 0.020       .   A
C601       H606 0.016       .   A
C602       C603 0.020       .   A
C602       C605 0.024       .   A
C603       C604 0.020       .   A
C603       H609 0.016       .   A
C604       H608 0.016       .   A
C605       C610 0.024       .   A
C605       N613 0.022       .   A
C605       H620 0.016       .   A
C607       C632 0.023       .   A
C607       H636 0.016       .   A
C607       H637 0.016       .   A
C610       C611 0.024       .   A
C610       H617 0.016       .   A
C610       H619 0.016       .   A
C611       N612 0.022       .   A
C611       C614 0.025       .   A
C611       H618 0.016       .   A
N612       N613 0.022       .   A
N612       H616 0.015       .   A
N613       H615 0.015       .   A
C614       O621 0.023       .   A
C614       C623 0.023       .   A
C614       H631 0.016       .   A
O621       C630 0.023       .   A
C622       C623 0.023       .   A
C622       H626 0.016       .   A
C622       H627 0.016       .   A
C622       C630 0.023       .   A
C623       H625 0.016       .   A
C623       H628 0.016       .   A
C624       C630 0.025       .   A
C624       C638 0.025       .   A
C624       N641 0.016       .   A
C624       H644 0.016       .   A
H629       C630 0.016       .   A
C632       H633 0.016       .   A
C632       H634 0.016       .   A
C632       H635 0.016       .   A
C638       N639 0.023       .   A
C638       H642 0.016       .   A
C638       H643 0.016       .   A
N639       N640 0.016       .   A
N640       N641 0.020       .   A
C553       C554 0.021       .   A
C553       C558 0.020       .   A
C554       C555 0.020       .   A
C554       C561 0.023       .   A
C555       C556 0.020       .   A
C555       H560 0.016       .   A
C556       C557 0.020       .   A
C556       C559 0.024       .   A
C557       C558 0.020       .   A
C557       H563 0.016       .   A
C558       H562 0.016       .   A
C559       C564 0.024       .   A
C559       N567 0.022       .   A
C559       H574 0.016       .   A
C561       C586 0.023       .   A
C561       H590 0.016       .   A
C561       H591 0.016       .   A
C564       C565 0.024       .   A
C564       H571 0.016       .   A
C564       H573 0.016       .   A
C565       N566 0.022       .   A
C565       C568 0.025       .   A
C565       H572 0.016       .   A
N566       N567 0.022       .   A
N566       H570 0.015       .   A
N567       H569 0.015       .   A
C568       O575 0.023       .   A
C568       C577 0.023       .   A
C568       H585 0.016       .   A
O575       C584 0.023       .   A
C576       C577 0.023       .   A
C576       H580 0.016       .   A
C576       H581 0.016       .   A
C576       C584 0.023       .   A
C577       H579 0.016       .   A
C577       H582 0.016       .   A
C578       C584 0.025       .   A
C578       C592 0.025       .   A
C578       N595 0.016       .   A
C578       H598 0.016       .   A
H583       C584 0.016       .   A
C586       H587 0.016       .   A
C586       H588 0.016       .   A
C586       H589 0.016       .   A
C592       N593 0.023       .   A
C592       H596 0.016       .   A
C592       H597 0.016       .   A
N593       N594 0.016       .   A
N594       N595 0.020       .   A
C507       C508 0.021       .   A
C507       C512 0.020       .   A
C508       C509 0.020       .   A
C508       C515 0.023       .   A
C509       C510 0.020       .   A
C509       H514 0.016       .   A
C510       C511 0.020       .   A
C510       C513 0.024       .   A
C511       C512 0.020       .   A
C511       H517 0.016       .   A
C512       H516 0.016       .   A
C513       C518 0.024       .   A
C513       N521 0.022       .   A
C513       H528 0.016       .   A
C515       C540 0.023       .   A
C515       H544 0.016       .   A
C515       H545 0.016       .   A
C518       C519 0.024       .   A
C518       H525 0.016       .   A
C518       H527 0.016       .   A
C519       N520 0.022       .   A
C519       C522 0.025       .   A
C519       H526 0.016       .   A
N520       N521 0.022       .   A
N520       H524 0.015       .   A
N521       H523 0.015       .   A
C522       O529 0.023       .   A
C522       C531 0.023       .   A
C522       H539 0.016       .   A
O529       C538 0.023       .   A
C530       C531 0.023       .   A
C530       H534 0.016       .   A
C530       H535 0.016       .   A
C530       C538 0.023       .   A
C531       H533 0.016       .   A
C531       H536 0.016       .   A
C532       C538 0.025       .   A
C532       C546 0.025       .   A
C532       N549 0.016       .   A
C532       H552 0.016       .   A
H537       C538 0.016       .   A
C540       H541 0.016       .   A
C540       H542 0.016       .   A
C540       H543 0.016       .   A
C546       N547 0.023       .   A
C546       H550 0.016       .   A
C546       H551 0.016       .   A
N547       N548 0.016       .   A
N548       N549 0.020       .   A
C461       C462 0.021       .   A
C461       C466 0.020       .   A
C462       C463 0.020       .   A
C462       C469 0.023       .   A
C463       C464 0.020       .   A
C463       H468 0.016       .   A
C464       C465 0.020       .   A
C464       C467 0.024       .   A
C465       C466 0.020       .   A
C465       H471 0.016       .   A
C466       H470 0.016       .   A
C467       C472 0.024       .   A
C467       N475 0.022       .   A
C467       H482 0.016       .   A
C469       C494 0.023       .   A
C469       H498 0.016       .   A
C469       H499 0.016       .   A
C472       C473 0.024       .   A
C472       H479 0.016       .   A
C472       H481 0.016       .   A
C473       N474 0.022       .   A
C473       C476 0.025       .   A
C473       H480 0.016       .   A
N474       N475 0.022       .   A
N474       H478 0.015       .   A
N475       H477 0.015       .   A
C476       O483 0.023       .   A
C476       C485 0.023       .   A
C476       H493 0.016       .   A
O483       C492 0.023       .   A
C484       C485 0.023       .   A
C484       H488 0.016       .   A
C484       H489 0.016       .   A
C484       C492 0.023       .   A
C485       H487 0.016       .   A
C485       H490 0.016       .   A
C486       C492 0.025       .   A
C486       C500 0.025       .   A
C486       N503 0.016       .   A
C486       H506 0.016       .   A
H491       C492 0.016       .   A
C494       H495 0.016       .   A
C494       H496 0.016       .   A
C494       H497 0.016       .   A
C500       N501 0.023       .   A
C500       H504 0.016       .   A
C500       H505 0.016       .   A
N501       N502 0.016       .   A
N502       N503 0.020       .   A
C415       C416 0.021       .   A
C415       C420 0.020       .   A
C416       C417 0.020       .   A
C416       C423 0.023       .   A
C417       C418 0.020       .   A
C417       H422 0.016       .   A
C418       C419 0.020       .   A
C418       C421 0.024       .   A
C419       C420 0.020       .   A
C419       H425 0.016       .   A
C420       H424 0.016       .   A
C421       C426 0.024       .   A
C421       N429 0.022       .   A
C421       H436 0.016       .   A
C423       C448 0.023       .   A
C423       H452 0.016       .   A
C423       H453 0.016       .   A
C426       C427 0.024       .   A
C426       H433 0.016       .   A
C426       H435 0.016       .   A
C427       N428 0.022       .   A
C427       C430 0.025       .   A
C427       H434 0.016       .   A
N428       N429 0.022       .   A
N428       H432 0.015       .   A
N429       H431 0.015       .   A
C430       O437 0.023       .   A
C430       C439 0.023       .   A
C430       H447 0.016       .   A
O437       C446 0.023       .   A
C438       C439 0.023       .   A
C438       H442 0.016       .   A
C438       H443 0.016       .   A
C438       C446 0.023       .   A
C439       H441 0.016       .   A
C439       H444 0.016       .   A
C440       C446 0.025       .   A
C440       C454 0.025       .   A
C440       N457 0.016       .   A
C440       H460 0.016       .   A
H445       C446 0.016       .   A
C448       H449 0.016       .   A
C448       H450 0.016       .   A
C448       H451 0.016       .   A
C454       N455 0.023       .   A
C454       H458 0.016       .   A
C454       H459 0.016       .   A
N455       N456 0.016       .   A
N456       N457 0.020       .   A
C369       C370 0.021       .   A
C369       C374 0.020       .   A
C370       C371 0.020       .   A
C370       C377 0.023       .   A
C371       C372 0.020       .   A
C371       H376 0.016       .   A
C372       C373 0.020       .   A
C372       C375 0.024       .   A
C373       C374 0.020       .   A
C373       H379 0.016       .   A
C374       H378 0.016       .   A
C375       C380 0.024       .   A
C375       N383 0.022       .   A
C375       H390 0.016       .   A
C377       C402 0.023       .   A
C377       H406 0.016       .   A
C377       H407 0.016       .   A
C380       C381 0.024       .   A
C380       H387 0.016       .   A
C380       H389 0.016       .   A
C381       N382 0.022       .   A
C381       C384 0.025       .   A
C381       H388 0.016       .   A
N382       N383 0.022       .   A
N382       H386 0.015       .   A
N383       H385 0.015       .   A
C384       O391 0.023       .   A
C384       C393 0.023       .   A
C384       H401 0.016       .   A
O391       C400 0.023       .   A
C392       C393 0.023       .   A
C392       H396 0.016       .   A
C392       H397 0.016       .   A
C392       C400 0.023       .   A
C393       H395 0.016       .   A
C393       H398 0.016       .   A
C394       C400 0.025       .   A
C394       C408 0.025       .   A
C394       N411 0.016       .   A
C394       H414 0.016       .   A
H399       C400 0.016       .   A
C402       H403 0.016       .   A
C402       H404 0.016       .   A
C402       H405 0.016       .   A
C408       N409 0.023       .   A
C408       H412 0.016       .   A
C408       H413 0.016       .   A
N409       N410 0.016       .   A
N410       N411 0.020       .   A
C323       C324 0.021       .   A
C323       C328 0.020       .   A
C324       C325 0.020       .   A
C324       C331 0.023       .   A
C325       C326 0.020       .   A
C325       H330 0.016       .   A
C326       C327 0.020       .   A
C326       C329 0.024       .   A
C327       C328 0.020       .   A
C327       H333 0.016       .   A
C328       H332 0.016       .   A
C329       C334 0.024       .   A
C329       N337 0.022       .   A
C329       H344 0.016       .   A
C331       C356 0.023       .   A
C331       H360 0.016       .   A
C331       H361 0.016       .   A
C334       C335 0.024       .   A
C334       H341 0.016       .   A
C334       H343 0.016       .   A
C335       N336 0.022       .   A
C335       C338 0.025       .   A
C335       H342 0.016       .   A
N336       N337 0.022       .   A
N336       H340 0.015       .   A
N337       H339 0.015       .   A
C338       O345 0.023       .   A
C338       C347 0.023       .   A
C338       H355 0.016       .   A
O345       C354 0.023       .   A
C346       C347 0.023       .   A
C346       H350 0.016       .   A
C346       H351 0.016       .   A
C346       C354 0.023       .   A
C347       H349 0.016       .   A
C347       H352 0.016       .   A
C348       C354 0.025       .   A
C348       C362 0.025       .   A
C348       N365 0.016       .   A
C348       H368 0.016       .   A
H353       C354 0.016       .   A
C356       H357 0.016       .   A
C356       H358 0.016       .   A
C356       H359 0.016       .   A
C362       N363 0.023       .   A
C362       H366 0.016       .   A
C362       H367 0.016       .   A
N363       N364 0.016       .   A
N364       N365 0.020       .   A
C277       C278 0.021       .   A
C277       C282 0.020       .   A
C278       C279 0.020       .   A
C278       C285 0.023       .   A
C279       C280 0.020       .   A
C279       H284 0.016       .   A
C280       C281 0.020       .   A
C280       C283 0.024       .   A
C281       C282 0.020       .   A
C281       H287 0.016       .   A
C282       H286 0.016       .   A
C283       C288 0.024       .   A
C283       N291 0.022       .   A
C283       H298 0.016       .   A
C285       C310 0.023       .   A
C285       H314 0.016       .   A
C285       H315 0.016       .   A
C288       C289 0.024       .   A
C288       H295 0.016       .   A
C288       H297 0.016       .   A
C289       N290 0.022       .   A
C289       C292 0.025       .   A
C289       H296 0.016       .   A
N290       N291 0.022       .   A
N290       H294 0.015       .   A
N291       H293 0.015       .   A
C292       O299 0.023       .   A
C292       C301 0.023       .   A
C292       H309 0.016       .   A
O299       C308 0.023       .   A
C300       C301 0.023       .   A
C300       H304 0.016       .   A
C300       H305 0.016       .   A
C300       C308 0.023       .   A
C301       H303 0.016       .   A
C301       H306 0.016       .   A
C302       C308 0.025       .   A
C302       C316 0.025       .   A
C302       N319 0.016       .   A
C302       H322 0.016       .   A
H307       C308 0.016       .   A
C310       H311 0.016       .   A
C310       H312 0.016       .   A
C310       H313 0.016       .   A
C316       N317 0.023       .   A
C316       H320 0.016       .   A
C316       H321 0.016       .   A
N317       N318 0.016       .   A
N318       N319 0.020       .   A
C231       C232 0.021       .   A
C231       C236 0.020       .   A
C232       C233 0.020       .   A
C232       C239 0.023       .   A
C233       C234 0.020       .   A
C233       H238 0.016       .   A
C234       C235 0.020       .   A
C234       C237 0.024       .   A
C235       C236 0.020       .   A
C235       H241 0.016       .   A
C236       H240 0.016       .   A
C237       C242 0.024       .   A
C237       N245 0.022       .   A
C237       H252 0.016       .   A
C239       C264 0.023       .   A
C239       H268 0.016       .   A
C239       H269 0.016       .   A
C242       C243 0.024       .   A
C242       H249 0.016       .   A
C242       H251 0.016       .   A
C243       N244 0.022       .   A
C243       C246 0.025       .   A
C243       H250 0.016       .   A
N244       N245 0.022       .   A
N244       H248 0.015       .   A
N245       H247 0.015       .   A
C246       O253 0.023       .   A
C246       C255 0.023       .   A
C246       H263 0.016       .   A
O253       C262 0.023       .   A
C254       C255 0.023       .   A
C254       H258 0.016       .   A
C254       H259 0.016       .   A
C254       C262 0.023       .   A
C255       H257 0.016       .   A
C255       H260 0.016       .   A
C256       C262 0.025       .   A
C256       C270 0.025       .   A
C256       N273 0.016       .   A
C256       H276 0.016       .   A
H261       C262 0.016       .   A
C264       H265 0.016       .   A
C264       H266 0.016       .   A
C264       H267 0.016       .   A
C270       N271 0.023       .   A
C270       H274 0.016       .   A
C270       H275 0.016       .   A
N271       N272 0.016       .   A
N272       N273 0.020       .   A
C185       C186 0.021       .   A
C185       C190 0.020       .   A
C186       C187 0.020       .   A
C186       C193 0.023       .   A
C187       C188 0.020       .   A
C187       H192 0.016       .   A
C188       C189 0.020       .   A
C188       C191 0.024       .   A
C189       C190 0.020       .   A
C189       H195 0.016       .   A
C190       H194 0.016       .   A
C191       C196 0.024       .   A
C191       N199 0.022       .   A
C191       H206 0.016       .   A
C193       C218 0.023       .   A
C193       H222 0.016       .   A
C193       H223 0.016       .   A
C196       C197 0.024       .   A
C196       H203 0.016       .   A
C196       H205 0.016       .   A
C197       N198 0.022       .   A
C197       C200 0.025       .   A
C197       H204 0.016       .   A
N198       N199 0.022       .   A
N198       H202 0.015       .   A
N199       H201 0.015       .   A
C200       O207 0.023       .   A
C200       C209 0.023       .   A
C200       H217 0.016       .   A
O207       C216 0.023       .   A
C208       C209 0.023       .   A
C208       H212 0.016       .   A
C208       H213 0.016       .   A
C208       C216 0.023       .   A
C209       H211 0.016       .   A
C209       H214 0.016       .   A
C210       C216 0.025       .   A
C210       C224 0.025       .   A
C210       N227 0.016       .   A
C210       H230 0.016       .   A
H215       C216 0.016       .   A
C218       H219 0.016       .   A
C218       H220 0.016       .   A
C218       H221 0.016       .   A
C224       N225 0.023       .   A
C224       H228 0.016       .   A
C224       H229 0.016       .   A
N225       N226 0.016       .   A
N226       N227 0.020       .   A
